<?xml version="1.0" encoding="UTF-8"?>

<!-- generated on 2022-04-30 17:16:36 by Eclipse SUMO netedit Version 1.9.1
<configuration xmlns:xsi="http://www.w3.org/2001/XMLSchema-instance" xsi:noNamespaceSchemaLocation="http://sumo.dlr.de/xsd/netconvertConfiguration.xsd">

    <input>
        <sumo-net-file value="C:\Users\zafeiria\Desktop\QLearning\Network\sixth\sixth.net.xml"/>
    </input>

    <output>
        <output-file value="C:\Users\zafeiria\Desktop\QLearning\Network\sixth\sixth.net.xml"/>
    </output>

    <processing>
        <geometry.min-radius.fix.railways value="false"/>
        <geometry.max-grade.fix value="false"/>
        <offset.disable-normalization value="true"/>
        <lefthand value="false"/>
    </processing>

    <junctions>
        <no-turnarounds value="true"/>
        <junctions.corner-detail value="5"/>
        <junctions.limit-turn-speed value="5.5"/>
        <rectangular-lane-cut value="false"/>
    </junctions>

    <pedestrian>
        <walkingareas value="false"/>
    </pedestrian>

    <report>
        <aggregate-warnings value="5"/>
    </report>

</configuration>
-->

<net version="1.9" junctionCornerDetail="5" limitTurnSpeed="5.50" xmlns:xsi="http://www.w3.org/2001/XMLSchema-instance" xsi:noNamespaceSchemaLocation="http://sumo.dlr.de/xsd/net_file.xsd">

    <location netOffset="0.00,0.00" convBoundary="0.00,0.00,600.00,400.00" origBoundary="-10000000000.00,-10000000000.00,10000000000.00,10000000000.00" projParameter="!"/>

    <edge id=":1_0" function="internal">
        <lane id=":1_0_0" index="0" speed="6.51" length="9.03" shape="98.40,107.20 98.05,104.75 97.00,103.00 95.25,101.95 92.80,101.60"/>
    </edge>
    <edge id=":1_1" function="internal">
        <lane id=":1_1_0" index="0" speed="13.89" length="14.40" shape="98.40,107.20 98.40,92.80"/>
    </edge>
    <edge id=":1_2" function="internal">
        <lane id=":1_2_0" index="0" speed="6.51" length="9.03" shape="107.20,101.60 104.75,101.95 103.00,103.00 101.95,104.75 101.60,107.20"/>
    </edge>
    <edge id=":1_3" function="internal">
        <lane id=":1_3_0" index="0" speed="13.89" length="14.40" shape="107.20,101.60 92.80,101.60"/>
    </edge>
    <edge id=":1_4" function="internal">
        <lane id=":1_4_0" index="0" speed="6.51" length="9.03" shape="101.60,92.80 101.95,95.25 103.00,97.00 104.75,98.05 107.20,98.40"/>
    </edge>
    <edge id=":1_5" function="internal">
        <lane id=":1_5_0" index="0" speed="13.89" length="14.40" shape="101.60,92.80 101.60,107.20"/>
    </edge>
    <edge id=":1_6" function="internal">
        <lane id=":1_6_0" index="0" speed="6.51" length="9.03" shape="92.80,98.40 95.25,98.05 97.00,97.00 98.05,95.25 98.40,92.80"/>
    </edge>
    <edge id=":1_7" function="internal">
        <lane id=":1_7_0" index="0" speed="13.89" length="14.40" shape="92.80,98.40 107.20,98.40"/>
    </edge>
    <edge id=":2_0" function="internal">
        <lane id=":2_0_0" index="0" speed="13.89" length="0.10" shape="200.00,101.60 200.00,101.60"/>
    </edge>
    <edge id=":2_1" function="internal">
        <lane id=":2_1_0" index="0" speed="13.89" length="0.10" shape="200.00,98.40 200.00,98.40"/>
    </edge>
    <edge id=":3_0" function="internal">
        <lane id=":3_0_0" index="0" speed="13.89" length="0.10" shape="98.40,200.00 98.40,200.00"/>
    </edge>
    <edge id=":3_1" function="internal">
        <lane id=":3_1_0" index="0" speed="13.89" length="0.10" shape="101.60,200.00 101.60,200.00"/>
    </edge>
    <edge id=":gneJ0_0" function="internal">
        <lane id=":gneJ0_0_0" index="0" speed="6.51" length="9.03" shape="298.40,107.20 298.05,104.75 297.00,103.00 295.25,101.95 292.80,101.60"/>
    </edge>
    <edge id=":gneJ0_1" function="internal">
        <lane id=":gneJ0_1_0" index="0" speed="13.89" length="14.40" shape="298.40,107.20 298.40,92.80"/>
    </edge>
    <edge id=":gneJ0_2" function="internal">
        <lane id=":gneJ0_2_0" index="0" speed="6.51" length="9.03" shape="307.20,101.60 304.75,101.95 303.00,103.00 301.95,104.75 301.60,107.20"/>
    </edge>
    <edge id=":gneJ0_3" function="internal">
        <lane id=":gneJ0_3_0" index="0" speed="13.89" length="14.40" shape="307.20,101.60 292.80,101.60"/>
    </edge>
    <edge id=":gneJ0_4" function="internal">
        <lane id=":gneJ0_4_0" index="0" speed="6.51" length="9.03" shape="301.60,92.80 301.95,95.25 303.00,97.00 304.75,98.05 307.20,98.40"/>
    </edge>
    <edge id=":gneJ0_5" function="internal">
        <lane id=":gneJ0_5_0" index="0" speed="13.89" length="14.40" shape="301.60,92.80 301.60,107.20"/>
    </edge>
    <edge id=":gneJ0_6" function="internal">
        <lane id=":gneJ0_6_0" index="0" speed="6.51" length="9.03" shape="292.80,98.40 295.25,98.05 297.00,97.00 298.05,95.25 298.40,92.80"/>
    </edge>
    <edge id=":gneJ0_7" function="internal">
        <lane id=":gneJ0_7_0" index="0" speed="13.89" length="14.40" shape="292.80,98.40 307.20,98.40"/>
    </edge>
    <edge id=":gneJ1_0" function="internal">
        <lane id=":gneJ1_0_0" index="0" speed="13.89" length="0.10" shape="298.40,200.00 298.40,200.00"/>
    </edge>
    <edge id=":gneJ1_1" function="internal">
        <lane id=":gneJ1_1_0" index="0" speed="13.89" length="0.10" shape="301.60,200.00 301.60,200.00"/>
    </edge>
    <edge id=":gneJ10_0" function="internal">
        <lane id=":gneJ10_0_0" index="0" speed="6.51" length="9.03" shape="298.40,307.20 298.05,304.75 297.00,303.00 295.25,301.95 292.80,301.60"/>
    </edge>
    <edge id=":gneJ10_1" function="internal">
        <lane id=":gneJ10_1_0" index="0" speed="13.89" length="14.40" shape="298.40,307.20 298.40,292.80"/>
    </edge>
    <edge id=":gneJ10_2" function="internal">
        <lane id=":gneJ10_2_0" index="0" speed="6.51" length="9.03" shape="307.20,301.60 304.75,301.95 303.00,303.00 301.95,304.75 301.60,307.20"/>
    </edge>
    <edge id=":gneJ10_3" function="internal">
        <lane id=":gneJ10_3_0" index="0" speed="13.89" length="14.40" shape="307.20,301.60 292.80,301.60"/>
    </edge>
    <edge id=":gneJ10_4" function="internal">
        <lane id=":gneJ10_4_0" index="0" speed="6.51" length="9.03" shape="301.60,292.80 301.95,295.25 303.00,297.00 304.75,298.05 307.20,298.40"/>
    </edge>
    <edge id=":gneJ10_5" function="internal">
        <lane id=":gneJ10_5_0" index="0" speed="13.89" length="14.40" shape="301.60,292.80 301.60,307.20"/>
    </edge>
    <edge id=":gneJ10_6" function="internal">
        <lane id=":gneJ10_6_0" index="0" speed="6.51" length="9.03" shape="292.80,298.40 295.25,298.05 297.00,297.00 298.05,295.25 298.40,292.80"/>
    </edge>
    <edge id=":gneJ10_7" function="internal">
        <lane id=":gneJ10_7_0" index="0" speed="13.89" length="14.40" shape="292.80,298.40 307.20,298.40"/>
    </edge>
    <edge id=":gneJ11_0" function="internal">
        <lane id=":gneJ11_0_0" index="0" speed="13.89" length="0.10" shape="400.00,301.60 400.00,301.60"/>
    </edge>
    <edge id=":gneJ11_1" function="internal">
        <lane id=":gneJ11_1_0" index="0" speed="13.89" length="0.10" shape="400.00,298.40 400.00,298.40"/>
    </edge>
    <edge id=":gneJ13_0" function="internal">
        <lane id=":gneJ13_0_0" index="0" speed="6.51" length="9.03" shape="498.40,307.20 498.05,304.75 497.00,303.00 495.25,301.95 492.80,301.60"/>
    </edge>
    <edge id=":gneJ13_1" function="internal">
        <lane id=":gneJ13_1_0" index="0" speed="13.89" length="14.40" shape="498.40,307.20 498.40,292.80"/>
    </edge>
    <edge id=":gneJ13_2" function="internal">
        <lane id=":gneJ13_2_0" index="0" speed="6.51" length="9.03" shape="507.20,301.60 504.75,301.95 503.00,303.00 501.95,304.75 501.60,307.20"/>
    </edge>
    <edge id=":gneJ13_3" function="internal">
        <lane id=":gneJ13_3_0" index="0" speed="13.89" length="14.40" shape="507.20,301.60 492.80,301.60"/>
    </edge>
    <edge id=":gneJ13_4" function="internal">
        <lane id=":gneJ13_4_0" index="0" speed="6.51" length="9.03" shape="501.60,292.80 501.95,295.25 503.00,297.00 504.75,298.05 507.20,298.40"/>
    </edge>
    <edge id=":gneJ13_5" function="internal">
        <lane id=":gneJ13_5_0" index="0" speed="13.89" length="14.40" shape="501.60,292.80 501.60,307.20"/>
    </edge>
    <edge id=":gneJ13_6" function="internal">
        <lane id=":gneJ13_6_0" index="0" speed="6.51" length="9.03" shape="492.80,298.40 495.25,298.05 497.00,297.00 498.05,295.25 498.40,292.80"/>
    </edge>
    <edge id=":gneJ13_7" function="internal">
        <lane id=":gneJ13_7_0" index="0" speed="13.89" length="14.40" shape="492.80,298.40 507.20,298.40"/>
    </edge>
    <edge id=":gneJ14_0" function="internal">
        <lane id=":gneJ14_0_0" index="0" speed="13.89" length="0.10" shape="498.40,200.00 498.40,200.00"/>
    </edge>
    <edge id=":gneJ14_1" function="internal">
        <lane id=":gneJ14_1_0" index="0" speed="13.89" length="0.10" shape="501.60,200.00 501.60,200.00"/>
    </edge>
    <edge id=":gneJ15_0" function="internal">
        <lane id=":gneJ15_0_0" index="0" speed="6.51" length="9.03" shape="498.40,107.20 498.05,104.75 497.00,103.00 495.25,101.95 492.80,101.60"/>
    </edge>
    <edge id=":gneJ15_1" function="internal">
        <lane id=":gneJ15_1_0" index="0" speed="13.89" length="14.40" shape="498.40,107.20 498.40,92.80"/>
    </edge>
    <edge id=":gneJ15_2" function="internal">
        <lane id=":gneJ15_2_0" index="0" speed="6.51" length="9.03" shape="507.20,101.60 504.75,101.95 503.00,103.00 501.95,104.75 501.60,107.20"/>
    </edge>
    <edge id=":gneJ15_3" function="internal">
        <lane id=":gneJ15_3_0" index="0" speed="13.89" length="14.40" shape="507.20,101.60 492.80,101.60"/>
    </edge>
    <edge id=":gneJ15_4" function="internal">
        <lane id=":gneJ15_4_0" index="0" speed="6.51" length="9.03" shape="501.60,92.80 501.95,95.25 503.00,97.00 504.75,98.05 507.20,98.40"/>
    </edge>
    <edge id=":gneJ15_5" function="internal">
        <lane id=":gneJ15_5_0" index="0" speed="13.89" length="14.40" shape="501.60,92.80 501.60,107.20"/>
    </edge>
    <edge id=":gneJ15_6" function="internal">
        <lane id=":gneJ15_6_0" index="0" speed="6.51" length="9.03" shape="492.80,98.40 495.25,98.05 497.00,97.00 498.05,95.25 498.40,92.80"/>
    </edge>
    <edge id=":gneJ15_7" function="internal">
        <lane id=":gneJ15_7_0" index="0" speed="13.89" length="14.40" shape="492.80,98.40 507.20,98.40"/>
    </edge>
    <edge id=":gneJ4_0" function="internal">
        <lane id=":gneJ4_0_0" index="0" speed="13.89" length="0.10" shape="400.00,101.60 400.00,101.60"/>
    </edge>
    <edge id=":gneJ4_1" function="internal">
        <lane id=":gneJ4_1_0" index="0" speed="13.89" length="0.10" shape="400.00,98.40 400.00,98.40"/>
    </edge>
    <edge id=":gneJ5_0" function="internal">
        <lane id=":gneJ5_0_0" index="0" speed="6.51" length="9.03" shape="98.40,307.20 98.05,304.75 97.00,303.00 95.25,301.95 92.80,301.60"/>
    </edge>
    <edge id=":gneJ5_1" function="internal">
        <lane id=":gneJ5_1_0" index="0" speed="13.89" length="14.40" shape="98.40,307.20 98.40,292.80"/>
    </edge>
    <edge id=":gneJ5_2" function="internal">
        <lane id=":gneJ5_2_0" index="0" speed="6.51" length="9.03" shape="107.20,301.60 104.75,301.95 103.00,303.00 101.95,304.75 101.60,307.20"/>
    </edge>
    <edge id=":gneJ5_3" function="internal">
        <lane id=":gneJ5_3_0" index="0" speed="13.89" length="14.40" shape="107.20,301.60 92.80,301.60"/>
    </edge>
    <edge id=":gneJ5_4" function="internal">
        <lane id=":gneJ5_4_0" index="0" speed="6.51" length="9.03" shape="101.60,292.80 101.95,295.25 103.00,297.00 104.75,298.05 107.20,298.40"/>
    </edge>
    <edge id=":gneJ5_5" function="internal">
        <lane id=":gneJ5_5_0" index="0" speed="13.89" length="14.40" shape="101.60,292.80 101.60,307.20"/>
    </edge>
    <edge id=":gneJ5_6" function="internal">
        <lane id=":gneJ5_6_0" index="0" speed="6.51" length="9.03" shape="92.80,298.40 95.25,298.05 97.00,297.00 98.05,295.25 98.40,292.80"/>
    </edge>
    <edge id=":gneJ5_7" function="internal">
        <lane id=":gneJ5_7_0" index="0" speed="13.89" length="14.40" shape="92.80,298.40 107.20,298.40"/>
    </edge>
    <edge id=":gneJ7_0" function="internal">
        <lane id=":gneJ7_0_0" index="0" speed="13.89" length="0.10" shape="200.00,301.60 200.00,301.60"/>
    </edge>
    <edge id=":gneJ7_1" function="internal">
        <lane id=":gneJ7_1_0" index="0" speed="13.89" length="0.10" shape="200.00,298.40 200.00,298.40"/>
    </edge>

    <edge id="-gneE0" from="gneJ1" to="gneJ0" priority="-1">
        <lane id="-gneE0_0" index="0" speed="13.89" length="92.80" shape="298.40,200.00 298.40,107.20"/>
    </edge>
    <edge id="-gneE1" from="2" to="gneJ0" priority="-1">
        <lane id="-gneE1_0" index="0" speed="13.89" length="92.80" shape="200.00,98.40 292.80,98.40"/>
    </edge>
    <edge id="-gneE10" from="gneJ10" to="gneJ11" priority="-1">
        <lane id="-gneE10_0" index="0" speed="13.89" length="92.80" shape="307.20,298.40 400.00,298.40"/>
    </edge>
    <edge id="-gneE11" from="gneJ12" to="gneJ10" priority="-1">
        <lane id="-gneE11_0" index="0" speed="13.89" length="92.80" shape="298.40,400.00 298.40,307.20"/>
    </edge>
    <edge id="-gneE12" from="gneJ14" to="gneJ13" priority="-1">
        <lane id="-gneE12_0" index="0" speed="13.89" length="92.80" shape="501.60,200.00 501.60,292.80"/>
    </edge>
    <edge id="-gneE13" from="gneJ14" to="gneJ15" priority="-1">
        <lane id="-gneE13_0" index="0" speed="13.89" length="92.80" shape="498.40,200.00 498.40,107.20"/>
    </edge>
    <edge id="-gneE14" from="gneJ15" to="gneJ4" priority="-1">
        <lane id="-gneE14_0" index="0" speed="13.89" length="92.80" shape="492.80,101.60 400.00,101.60"/>
    </edge>
    <edge id="-gneE15" from="gneJ15" to="gneJ16" priority="-1">
        <lane id="-gneE15_0" index="0" speed="13.89" length="92.80" shape="507.20,98.40 600.00,98.40"/>
    </edge>
    <edge id="-gneE16" from="gneJ13" to="gneJ11" priority="-1">
        <lane id="-gneE16_0" index="0" speed="13.89" length="92.80" shape="492.80,301.60 400.00,301.60"/>
    </edge>
    <edge id="-gneE17" from="gneJ17" to="gneJ13" priority="-1">
        <lane id="-gneE17_0" index="0" speed="13.89" length="92.80" shape="600.00,301.60 507.20,301.60"/>
    </edge>
    <edge id="-gneE18" from="gneJ18" to="gneJ13" priority="-1">
        <lane id="-gneE18_0" index="0" speed="13.89" length="92.80" shape="498.40,400.00 498.40,307.20"/>
    </edge>
    <edge id="-gneE19" from="gneJ19" to="gneJ15" priority="-1">
        <lane id="-gneE19_0" index="0" speed="13.89" length="92.80" shape="501.60,0.00 501.60,92.80"/>
    </edge>
    <edge id="-gneE2" from="gneJ0" to="gneJ3" priority="-1">
        <lane id="-gneE2_0" index="0" speed="13.89" length="92.80" shape="298.40,92.80 298.40,0.00"/>
    </edge>
    <edge id="-gneE3" from="gneJ0" to="gneJ4" priority="-1">
        <lane id="-gneE3_0" index="0" speed="13.89" length="92.80" shape="307.20,98.40 400.00,98.40"/>
    </edge>
    <edge id="-gneE4" from="gneJ5" to="gneJ6" priority="-1">
        <lane id="-gneE4_0" index="0" speed="13.89" length="92.80" shape="101.60,307.20 101.60,400.00"/>
    </edge>
    <edge id="-gneE5" from="gneJ5" to="3" priority="-1">
        <lane id="-gneE5_0" index="0" speed="13.89" length="92.80" shape="98.40,292.80 98.40,200.00"/>
    </edge>
    <edge id="-gneE6" from="gneJ5" to="gneJ7" priority="-1">
        <lane id="-gneE6_0" index="0" speed="13.89" length="92.80" shape="107.20,298.40 200.00,298.40"/>
    </edge>
    <edge id="-gneE7" from="gneJ5" to="gneJ8" priority="-1">
        <lane id="-gneE7_0" index="0" speed="13.89" length="92.80" shape="92.80,301.60 0.00,301.60"/>
    </edge>
    <edge id="-gneE8" from="gneJ7" to="gneJ10" priority="-1">
        <lane id="-gneE8_0" index="0" speed="13.89" length="92.80" shape="200.00,298.40 292.80,298.40"/>
    </edge>
    <edge id="-gneE9" from="gneJ10" to="gneJ1" priority="-1">
        <lane id="-gneE9_0" index="0" speed="13.89" length="92.80" shape="298.40,292.80 298.40,200.00"/>
    </edge>
    <edge id="E01" from="0" to="1" priority="-1">
        <lane id="E01_0" index="0" speed="13.89" length="92.80" shape="0.00,98.40 92.80,98.40"/>
    </edge>
    <edge id="E10" from="1" to="0" priority="-1">
        <lane id="E10_0" index="0" speed="13.89" length="92.80" shape="92.80,101.60 0.00,101.60"/>
    </edge>
    <edge id="N13" from="1" to="3" priority="-1">
        <lane id="N13_0" index="0" speed="13.89" length="92.80" shape="101.60,107.20 101.60,200.00"/>
    </edge>
    <edge id="N31" from="3" to="1" priority="-1">
        <lane id="N31_0" index="0" speed="13.89" length="92.80" shape="98.40,200.00 98.40,107.20"/>
    </edge>
    <edge id="S14" from="1" to="4" priority="-1">
        <lane id="S14_0" index="0" speed="13.89" length="92.80" shape="98.40,92.80 98.40,0.00"/>
    </edge>
    <edge id="S41" from="4" to="1" priority="-1">
        <lane id="S41_0" index="0" speed="13.89" length="92.80" shape="101.60,0.00 101.60,92.80"/>
    </edge>
    <edge id="W12" from="1" to="2" priority="-1">
        <lane id="W12_0" index="0" speed="13.89" length="92.80" shape="107.20,98.40 200.00,98.40"/>
    </edge>
    <edge id="W21" from="2" to="1" priority="-1">
        <lane id="W21_0" index="0" speed="13.89" length="92.80" shape="200.00,101.60 107.20,101.60"/>
    </edge>
    <edge id="gneE0" from="gneJ0" to="gneJ1" priority="-1">
        <lane id="gneE0_0" index="0" speed="13.89" length="92.80" shape="301.60,107.20 301.60,200.00"/>
    </edge>
    <edge id="gneE1" from="gneJ0" to="2" priority="-1">
        <lane id="gneE1_0" index="0" speed="13.89" length="92.80" shape="292.80,101.60 200.00,101.60"/>
    </edge>
    <edge id="gneE10" from="gneJ11" to="gneJ10" priority="-1">
        <lane id="gneE10_0" index="0" speed="13.89" length="92.80" shape="400.00,301.60 307.20,301.60"/>
    </edge>
    <edge id="gneE11" from="gneJ10" to="gneJ12" priority="-1">
        <lane id="gneE11_0" index="0" speed="13.89" length="92.80" shape="301.60,307.20 301.60,400.00"/>
    </edge>
    <edge id="gneE12" from="gneJ13" to="gneJ14" priority="-1">
        <lane id="gneE12_0" index="0" speed="13.89" length="92.80" shape="498.40,292.80 498.40,200.00"/>
    </edge>
    <edge id="gneE13" from="gneJ15" to="gneJ14" priority="-1">
        <lane id="gneE13_0" index="0" speed="13.89" length="92.80" shape="501.60,107.20 501.60,200.00"/>
    </edge>
    <edge id="gneE14" from="gneJ4" to="gneJ15" priority="-1">
        <lane id="gneE14_0" index="0" speed="13.89" length="92.80" shape="400.00,98.40 492.80,98.40"/>
    </edge>
    <edge id="gneE15" from="gneJ16" to="gneJ15" priority="-1">
        <lane id="gneE15_0" index="0" speed="13.89" length="92.80" shape="600.00,101.60 507.20,101.60"/>
    </edge>
    <edge id="gneE16" from="gneJ11" to="gneJ13" priority="-1">
        <lane id="gneE16_0" index="0" speed="13.89" length="92.80" shape="400.00,298.40 492.80,298.40"/>
    </edge>
    <edge id="gneE17" from="gneJ13" to="gneJ17" priority="-1">
        <lane id="gneE17_0" index="0" speed="13.89" length="92.80" shape="507.20,298.40 600.00,298.40"/>
    </edge>
    <edge id="gneE18" from="gneJ13" to="gneJ18" priority="-1">
        <lane id="gneE18_0" index="0" speed="13.89" length="92.80" shape="501.60,307.20 501.60,400.00"/>
    </edge>
    <edge id="gneE19" from="gneJ15" to="gneJ19" priority="-1">
        <lane id="gneE19_0" index="0" speed="13.89" length="92.80" shape="498.40,92.80 498.40,0.00"/>
    </edge>
    <edge id="gneE2" from="gneJ3" to="gneJ0" priority="-1">
        <lane id="gneE2_0" index="0" speed="13.89" length="92.80" shape="301.60,0.00 301.60,92.80"/>
    </edge>
    <edge id="gneE3" from="gneJ4" to="gneJ0" priority="-1">
        <lane id="gneE3_0" index="0" speed="13.89" length="92.80" shape="400.00,101.60 307.20,101.60"/>
    </edge>
    <edge id="gneE4" from="gneJ6" to="gneJ5" priority="-1">
        <lane id="gneE4_0" index="0" speed="13.89" length="92.80" shape="98.40,400.00 98.40,307.20"/>
    </edge>
    <edge id="gneE5" from="3" to="gneJ5" priority="-1">
        <lane id="gneE5_0" index="0" speed="13.89" length="92.80" shape="101.60,200.00 101.60,292.80"/>
    </edge>
    <edge id="gneE6" from="gneJ7" to="gneJ5" priority="-1">
        <lane id="gneE6_0" index="0" speed="13.89" length="92.80" shape="200.00,301.60 107.20,301.60"/>
    </edge>
    <edge id="gneE7" from="gneJ8" to="gneJ5" priority="-1">
        <lane id="gneE7_0" index="0" speed="13.89" length="92.80" shape="0.00,298.40 92.80,298.40"/>
    </edge>
    <edge id="gneE8" from="gneJ10" to="gneJ7" priority="-1">
        <lane id="gneE8_0" index="0" speed="13.89" length="92.80" shape="292.80,301.60 200.00,301.60"/>
    </edge>
    <edge id="gneE9" from="gneJ1" to="gneJ10" priority="-1">
        <lane id="gneE9_0" index="0" speed="13.89" length="92.80" shape="301.60,200.00 301.60,292.80"/>
    </edge>

    <tlLogic id="1" type="static" programID="0" offset="0">
        <phase duration="42" state="GGrrGGrr"/>
        <phase duration="3"  state="yyrryyrr"/>
        <phase duration="42" state="rrGGrrGG"/>
        <phase duration="3"  state="rryyrryy"/>
    </tlLogic>
    <tlLogic id="gneJ0" type="static" programID="0" offset="0">
        <phase duration="42" state="GGrrGGrr"/>
        <phase duration="3"  state="yyrryyrr"/>
        <phase duration="42" state="rrGGrrGG"/>
        <phase duration="3"  state="rryyrryy"/>
    </tlLogic>
    <tlLogic id="gneJ0" type="static" programID="1" offset="0">
        <phase duration="42" state="GGrrGGrr"/>
        <phase duration="3"  state="yyrryyrr"/>
        <phase duration="42" state="rrGGrrGG"/>
        <phase duration="3"  state="rryyrryy"/>
    </tlLogic>
    <tlLogic id="gneJ10" type="static" programID="0" offset="0">
        <phase duration="42" state="GGrrGGrr"/>
        <phase duration="3"  state="yyrryyrr"/>
        <phase duration="42" state="rrGGrrGG"/>
        <phase duration="3"  state="rryyrryy"/>
    </tlLogic>
    <tlLogic id="gneJ13" type="static" programID="0" offset="0">
        <phase duration="42" state="GGrrGGrr"/>
        <phase duration="3"  state="yyrryyrr"/>
        <phase duration="42" state="rrGGrrGG"/>
        <phase duration="3"  state="rryyrryy"/>
    </tlLogic>
    <tlLogic id="gneJ15" type="static" programID="0" offset="0">
        <phase duration="42" state="GGrrGGrr"/>
        <phase duration="3"  state="yyrryyrr"/>
        <phase duration="42" state="rrGGrrGG"/>
        <phase duration="3"  state="rryyrryy"/>
    </tlLogic>
    <tlLogic id="gneJ5" type="static" programID="0" offset="0">
        <phase duration="42" state="GGrrGGrr"/>
        <phase duration="3"  state="yyrryyrr"/>
        <phase duration="42" state="rrGGrrGG"/>
        <phase duration="3"  state="rryyrryy"/>
    </tlLogic>

    <junction id="0" type="dead_end" x="0.00" y="100.00" incLanes="E10_0" intLanes="" shape="0.00,100.00 0.00,103.20 0.00,100.00"/>
    <junction id="1" type="traffic_light" x="100.00" y="100.00" incLanes="N31_0 W21_0 S41_0 E01_0" intLanes=":1_0_0 :1_1_0 :1_2_0 :1_3_0 :1_4_0 :1_5_0 :1_6_0 :1_7_0" shape="96.80,107.20 103.20,107.20 103.64,104.98 104.20,104.20 104.98,103.64 105.98,103.31 107.20,103.20 107.20,96.80 104.98,96.36 104.20,95.80 103.64,95.02 103.31,94.02 103.20,92.80 96.80,92.80 96.36,95.02 95.80,95.80 95.02,96.36 94.02,96.69 92.80,96.80 92.80,103.20 95.02,103.64 95.80,104.20 96.36,104.98 96.69,105.98">
        <request index="0" response="00000000" foes="00001000" cont="0"/>
        <request index="1" response="00000000" foes="11001000" cont="0"/>
        <request index="2" response="00100000" foes="00100000" cont="0"/>
        <request index="3" response="00100011" foes="00100011" cont="0"/>
        <request index="4" response="00000000" foes="10000000" cont="0"/>
        <request index="5" response="00000000" foes="10001100" cont="0"/>
        <request index="6" response="00000010" foes="00000010" cont="0"/>
        <request index="7" response="00110010" foes="00110010" cont="0"/>
    </junction>
    <junction id="2" type="priority" x="200.00" y="100.00" incLanes="gneE1_0 W12_0" intLanes=":2_0_0 :2_1_0" shape="200.00,103.20 200.00,96.80 200.00,103.20">
        <request index="0" response="00" foes="00" cont="0"/>
        <request index="1" response="00" foes="00" cont="0"/>
    </junction>
    <junction id="3" type="priority" x="100.00" y="200.00" incLanes="-gneE5_0 N13_0" intLanes=":3_0_0 :3_1_0" shape="96.80,200.00 103.20,200.00 96.80,200.00">
        <request index="0" response="00" foes="00" cont="0"/>
        <request index="1" response="00" foes="00" cont="0"/>
    </junction>
    <junction id="4" type="dead_end" x="100.00" y="0.00" incLanes="S14_0" intLanes="" shape="100.00,0.00 96.80,0.00 100.00,0.00"/>
    <junction id="gneJ0" type="traffic_light" x="300.00" y="100.00" incLanes="-gneE0_0 gneE3_0 gneE2_0 -gneE1_0" intLanes=":gneJ0_0_0 :gneJ0_1_0 :gneJ0_2_0 :gneJ0_3_0 :gneJ0_4_0 :gneJ0_5_0 :gneJ0_6_0 :gneJ0_7_0" shape="296.80,107.20 303.20,107.20 303.64,104.98 304.20,104.20 304.98,103.64 305.98,103.31 307.20,103.20 307.20,96.80 304.98,96.36 304.20,95.80 303.64,95.02 303.31,94.02 303.20,92.80 296.80,92.80 296.36,95.02 295.80,95.80 295.02,96.36 294.02,96.69 292.80,96.80 292.80,103.20 295.02,103.64 295.80,104.20 296.36,104.98 296.69,105.98">
        <request index="0" response="00000000" foes="00001000" cont="0"/>
        <request index="1" response="00000000" foes="11001000" cont="0"/>
        <request index="2" response="00100000" foes="00100000" cont="0"/>
        <request index="3" response="00100011" foes="00100011" cont="0"/>
        <request index="4" response="00000000" foes="10000000" cont="0"/>
        <request index="5" response="00000000" foes="10001100" cont="0"/>
        <request index="6" response="00000010" foes="00000010" cont="0"/>
        <request index="7" response="00110010" foes="00110010" cont="0"/>
    </junction>
    <junction id="gneJ1" type="priority" x="300.00" y="200.00" incLanes="-gneE9_0 gneE0_0" intLanes=":gneJ1_0_0 :gneJ1_1_0" shape="296.80,200.00 303.20,200.00 296.80,200.00">
        <request index="0" response="00" foes="00" cont="0"/>
        <request index="1" response="00" foes="00" cont="0"/>
    </junction>
    <junction id="gneJ10" type="traffic_light" x="300.00" y="300.00" incLanes="-gneE11_0 gneE10_0 gneE9_0 -gneE8_0" intLanes=":gneJ10_0_0 :gneJ10_1_0 :gneJ10_2_0 :gneJ10_3_0 :gneJ10_4_0 :gneJ10_5_0 :gneJ10_6_0 :gneJ10_7_0" shape="296.80,307.20 303.20,307.20 303.64,304.98 304.20,304.20 304.98,303.64 305.98,303.31 307.20,303.20 307.20,296.80 304.98,296.36 304.20,295.80 303.64,295.02 303.31,294.02 303.20,292.80 296.80,292.80 296.36,295.02 295.80,295.80 295.02,296.36 294.02,296.69 292.80,296.80 292.80,303.20 295.02,303.64 295.80,304.20 296.36,304.98 296.69,305.98">
        <request index="0" response="00000000" foes="00001000" cont="0"/>
        <request index="1" response="00000000" foes="11001000" cont="0"/>
        <request index="2" response="00100000" foes="00100000" cont="0"/>
        <request index="3" response="00100011" foes="00100011" cont="0"/>
        <request index="4" response="00000000" foes="10000000" cont="0"/>
        <request index="5" response="00000000" foes="10001100" cont="0"/>
        <request index="6" response="00000010" foes="00000010" cont="0"/>
        <request index="7" response="00110010" foes="00110010" cont="0"/>
    </junction>
    <junction id="gneJ11" type="priority" x="400.00" y="300.00" incLanes="-gneE16_0 -gneE10_0" intLanes=":gneJ11_0_0 :gneJ11_1_0" shape="400.00,303.20 400.00,296.80 400.00,303.20">
        <request index="0" response="00" foes="00" cont="0"/>
        <request index="1" response="00" foes="00" cont="0"/>
    </junction>
    <junction id="gneJ12" type="dead_end" x="300.00" y="400.00" incLanes="gneE11_0" intLanes="" shape="300.00,400.00 303.20,400.00 300.00,400.00"/>
    <junction id="gneJ13" type="traffic_light" x="500.00" y="300.00" incLanes="-gneE18_0 -gneE17_0 -gneE12_0 gneE16_0" intLanes=":gneJ13_0_0 :gneJ13_1_0 :gneJ13_2_0 :gneJ13_3_0 :gneJ13_4_0 :gneJ13_5_0 :gneJ13_6_0 :gneJ13_7_0" shape="496.80,307.20 503.20,307.20 503.64,304.98 504.20,304.20 504.98,303.64 505.98,303.31 507.20,303.20 507.20,296.80 504.98,296.36 504.20,295.80 503.64,295.02 503.31,294.02 503.20,292.80 496.80,292.80 496.36,295.02 495.80,295.80 495.02,296.36 494.02,296.69 492.80,296.80 492.80,303.20 495.02,303.64 495.80,304.20 496.36,304.98 496.69,305.98">
        <request index="0" response="00000000" foes="00001000" cont="0"/>
        <request index="1" response="00000000" foes="11001000" cont="0"/>
        <request index="2" response="00100000" foes="00100000" cont="0"/>
        <request index="3" response="00100011" foes="00100011" cont="0"/>
        <request index="4" response="00000000" foes="10000000" cont="0"/>
        <request index="5" response="00000000" foes="10001100" cont="0"/>
        <request index="6" response="00000010" foes="00000010" cont="0"/>
        <request index="7" response="00110010" foes="00110010" cont="0"/>
    </junction>
    <junction id="gneJ14" type="priority" x="500.00" y="200.00" incLanes="gneE12_0 gneE13_0" intLanes=":gneJ14_0_0 :gneJ14_1_0" shape="496.80,200.00 503.20,200.00 496.80,200.00">
        <request index="0" response="00" foes="00" cont="0"/>
        <request index="1" response="00" foes="00" cont="0"/>
    </junction>
    <junction id="gneJ15" type="traffic_light" x="500.00" y="100.00" incLanes="-gneE13_0 gneE15_0 -gneE19_0 gneE14_0" intLanes=":gneJ15_0_0 :gneJ15_1_0 :gneJ15_2_0 :gneJ15_3_0 :gneJ15_4_0 :gneJ15_5_0 :gneJ15_6_0 :gneJ15_7_0" shape="496.80,107.20 503.20,107.20 503.64,104.98 504.20,104.20 504.98,103.64 505.98,103.31 507.20,103.20 507.20,96.80 504.98,96.36 504.20,95.80 503.64,95.02 503.31,94.02 503.20,92.80 496.80,92.80 496.36,95.02 495.80,95.80 495.02,96.36 494.02,96.69 492.80,96.80 492.80,103.20 495.02,103.64 495.80,104.20 496.36,104.98 496.69,105.98">
        <request index="0" response="00000000" foes="00001000" cont="0"/>