<configuration>

<input>
<net-file value="sixth.net.xml"/>
<route-files value="routes.rou.xml"/>
</input>

<output>
</output>


</configuration>