<?xml version="1.0" encoding="UTF-8"?>

<!-- generated on 2022-04-06 23:45:10 by Eclipse SUMO duarouter Version 1.9.1
<configuration xmlns:xsi="http://www.w3.org/2001/XMLSchema-instance" xsi:noNamespaceSchemaLocation="http://sumo.dlr.de/xsd/duarouterConfiguration.xsd">

    <input>
        <net-file value=".\Network\fourth\fourth.net.xml"/>
        <route-files value="trips.trips.xml"/>
    </input>

    <output>
        <output-file value=".\Network\fourth\fourthRoutes.rou.xml"/>
        <alternatives-output value=".\Network\fourth\fourthRoutes.rou.alt.xml"/>
    </output>

    <time>
        <begin value="0"/>
        <end value="100000"/>
    </time>

    <report>
        <no-warnings value="true"/>
        <ignore-errors value="true"/>
        <no-step-log value="true"/>
    </report>

</configuration>
-->

<routes xmlns:xsi="http://www.w3.org/2001/XMLSchema-instance" xsi:noNamespaceSchemaLocation="http://sumo.dlr.de/xsd/routes_file.xsd">
    <vehicle id="12" depart="12.00">
        <route edges="-gneE9"/>
    </vehicle>
    <vehicle id="16" depart="16.00">
        <route edges="-gneE0 gneE1 W21 N13 gneE5"/>
    </vehicle>
    <vehicle id="17" depart="17.00">
        <route edges="S41 N13"/>
    </vehicle>
    <vehicle id="18" depart="18.00">
        <route edges="gneE7 -gneE5 N31"/>
    </vehicle>
    <vehicle id="20" depart="20.00">
        <route edges="N31"/>
    </vehicle>
    <vehicle id="21" depart="21.00">
        <route edges="W21 N13 gneE5 -gneE6 -gneE8 -gneE9 -gneE0 -gneE2"/>
    </vehicle>
    <vehicle id="22" depart="22.00">
        <route edges="-gneE0 gneE1 W21 N13 gneE5 -gneE6 -gneE8"/>
    </vehicle>
    <vehicle id="26" depart="26.00">
        <route edges="gneE5"/>
    </vehicle>
    <vehicle id="27" depart="27.00">
        <route edges="gneE5 -gneE6 -gneE8 -gneE10"/>
    </vehicle>
    <vehicle id="29" depart="29.00">
        <route edges="W21 E10"/>
    </vehicle>
    <vehicle id="31" depart="31.00">
        <route edges="gneE7 -gneE6"/>
    </vehicle>
    <vehicle id="32" depart="32.00">
        <route edges="-gneE8 -gneE9 -gneE0 -gneE2"/>
    </vehicle>
    <vehicle id="34" depart="34.00">
        <route edges="-gneE8 -gneE9 -gneE0 -gneE2"/>
    </vehicle>
    <vehicle id="46" depart="46.00">
        <route edges="-gneE6 -gneE8 -gneE9 -gneE0 gneE1"/>
    </vehicle>
    <vehicle id="47" depart="47.00">
        <route edges="-gneE0 gneE1 W21 N13 gneE5 -gneE6 -gneE8 -gneE9"/>
    </vehicle>
    <vehicle id="48" depart="48.00">
        <route edges="gneE6 -gneE7"/>
    </vehicle>
    <vehicle id="49" depart="49.00">
        <route edges="gneE3 gneE0 gneE9"/>
    </vehicle>
    <vehicle id="50" depart="50.00">
        <route edges="gneE9 gneE11"/>
    </vehicle>
    <vehicle id="62" depart="62.00">
        <route edges="gneE5 -gneE6 -gneE8 -gneE9 -gneE0"/>
    </vehicle>
    <vehicle id="68" depart="68.00">
        <route edges="W21"/>
    </vehicle>
    <vehicle id="70" depart="70.00">
        <route edges="-gneE6 -gneE8 -gneE9 -gneE0 gneE1 W21 N13 gneE5 -gneE4"/>
    </vehicle>
    <vehicle id="72" depart="72.00">
        <route edges="W12 -gneE1"/>
    </vehicle>
    <vehicle id="77" depart="77.00">
        <route edges="S41 N13 gneE5 -gneE6"/>
    </vehicle>
    <vehicle id="80" depart="80.00">
        <route edges="-gneE6 -gneE8 -gneE9 -gneE0 gneE1 W21 N13"/>
    </vehicle>
    <vehicle id="88" depart="88.00">
        <route edges="-gneE8 -gneE9 -gneE0 gneE1"/>
    </vehicle>
    <vehicle id="96" depart="96.00">
        <route edges="-gneE9 -gneE0 gneE1 W21 N13 gneE5"/>
    </vehicle>
    <vehicle id="98" depart="98.00">
        <route edges="gneE1 W21 N13"/>
    </vehicle>
    <vehicle id="99" depart="99.00">
        <route edges="W21 N13 gneE5 -gneE6 -gneE8"/>
    </vehicle>
    <vehicle id="100" depart="100.00">
        <route edges="S41 N13"/>
    </vehicle>
    <vehicle id="101" depart="101.00">
        <route edges="gneE1 W21 N13 gneE5 -gneE6 -gneE8"/>
    </vehicle>
    <vehicle id="108" depart="108.00">
        <route edges="gneE7 -gneE5 N31"/>
    </vehicle>
    <vehicle id="109" depart="109.00">
        <route edges="-gneE11 -gneE9 -gneE0 gneE1 W21 N13 gneE5 -gneE6"/>
    </vehicle>
    <vehicle id="111" depart="111.00">
        <route edges="gneE3 gneE1 W21"/>
    </vehicle>
    <vehicle id="112" depart="112.00">
        <route edges="gneE5 -gneE6 -gneE8 -gneE9 -gneE0 gneE1 W21 E10"/>
    </vehicle>
    <vehicle id="114" depart="114.00">
        <route edges="W21 N13 gneE5 -gneE6 -gneE8 -gneE9 -gneE0 gneE1"/>
    </vehicle>
    <vehicle id="116" depart="116.00">
        <route edges="gneE2 gneE0 gneE9"/>
    </vehicle>
    <vehicle id="117" depart="117.00">
        <route edges="-gneE11 -gneE9 -gneE0 gneE1 W21 N13 gneE5"/>
    </vehicle>
    <vehicle id="118" depart="118.00">
        <route edges="-gneE0 -gneE2"/>
    </vehicle>
    <vehicle id="119" depart="119.00">
        <route edges="gneE7 -gneE5 N31 S14"/>
    </vehicle>
    <vehicle id="120" depart="120.00">
        <route edges="gneE4 -gneE5 N31"/>
    </vehicle>
    <vehicle id="128" depart="128.00">
        <route edges="S41 N13 gneE5 -gneE4"/>
    </vehicle>
    <vehicle id="130" depart="130.00">
        <route edges="S41 N13 gneE5 -gneE6"/>
    </vehicle>
    <vehicle id="133" depart="133.00">
        <route edges="S41 N13 gneE5 -gneE6 -gneE8 -gneE9 -gneE0 gneE1 W21"/>
    </vehicle>
    <vehicle id="137" depart="137.00">
        <route edges="N13 gneE5 -gneE6 -gneE8 -gneE9 -gneE0 gneE1 W21 E10"/>
    </vehicle>
    <vehicle id="139" depart="139.00">
        <route edges="gneE3 gneE1 W21 N13 gneE5 -gneE6 -gneE8"/>
    </vehicle>
    <vehicle id="140" depart="140.00">
        <route edges="-gneE1 -gneE3"/>
    </vehicle>
    <vehicle id="141" depart="141.00">
        <route edges="W21 E10"/>
    </vehicle>
    <vehicle id="148" depart="148.00">
        <route edges="gneE1 W21 N13 gneE5 -gneE6 -gneE8"/>
    </vehicle>
    <vehicle id="149" depart="149.00">
        <route edges="-gneE8 -gneE9 -gneE0 gneE1 W21 E10"/>
    </vehicle>
    <vehicle id="151" depart="151.00">
        <route edges="-gneE9 -gneE0 gneE1 W21 N13 gneE5 -gneE6 -gneE8"/>
    </vehicle>
    <vehicle id="152" depart="152.00">
        <route edges="gneE3 gneE1 W21 N13 gneE5 -gneE6 -gneE8"/>
    </vehicle>
    <vehicle id="154" depart="154.00">
        <route edges="gneE4 -gneE5 N31 S14"/>
    </vehicle>
    <vehicle id="156" depart="156.00">
        <route edges="gneE6 -gneE7"/>
    </vehicle>
    <vehicle id="157" depart="157.00">
        <route edges="S41 N13 gneE5 -gneE6 -gneE8 -gneE9 -gneE0 gneE1 W21"/>
    </vehicle>
    <vehicle id="158" depart="158.00">
        <route edges="gneE5 -gneE6 -gneE8 -gneE9 -gneE0 -gneE2"/>
    </vehicle>
    <vehicle id="160" depart="160.00">
        <route edges="N13 gneE5 -gneE6 -gneE8 -gneE9 -gneE0"/>
    </vehicle>
    <vehicle id="166" depart="166.00">
        <route edges="gneE5"/>
    </vehicle>
    <vehicle id="170" depart="170.00">
        <route edges="N13 gneE5 -gneE6"/>
    </vehicle>
    <vehicle id="172" depart="172.00">
        <route edges="N13 gneE5"/>
    </vehicle>
    <vehicle id="174" depart="174.00">
        <route edges="-gneE9 -gneE0 gneE1 W21 N13"/>
    </vehicle>
    <vehicle id="175" depart="175.00">
        <route edges="gneE1 W21 N13"/>
    </vehicle>
    <vehicle id="177" depart="177.00">
        <route edges="gneE5 -gneE6 -gneE8 -gneE9 -gneE0 gneE1 W21"/>
    </vehicle>
    <vehicle id="183" depart="183.00">
        <route edges="-gneE8 -gneE9 -gneE0 -gneE2"/>
    </vehicle>
    <vehicle id="185" depart="185.00">
        <route edges="-gneE11 -gneE9 -gneE0 -gneE2"/>
    </vehicle>
    <vehicle id="187" depart="187.00">
        <route edges="-gneE1 -gneE2"/>
    </vehicle>
    <vehicle id="188" depart="188.00">
        <route edges="W21 N13 gneE5 -gneE6 -gneE8 -gneE9 -gneE0"/>
    </vehicle>
    <vehicle id="191" depart="191.00">
        <route edges="W21 E10"/>
    </vehicle>
    <vehicle id="193" depart="193.00">
        <route edges="gneE3 gneE1 W21 N13 gneE5 -gneE6 -gneE8"/>
    </vehicle>
    <vehicle id="199" depart="199.00">
        <route edges="-gneE6 -gneE8 -gneE9 -gneE0 gneE1"/>
    </vehicle>
    <vehicle id="200" depart="200.00">
        <route edges="W21 N13 gneE5"/>
    </vehicle>
    <vehicle id="201" depart="201.00">
        <route edges="gneE1 W21 N13 gneE5 -gneE6 -gneE8 -gneE9"/>
    </vehicle>
    <vehicle id="202" depart="202.00">
        <route edges="S41 N13 gneE5 -gneE6 -gneE8 -gneE9 -gneE0"/>
    </vehicle>
    <vehicle id="203" depart="203.00">
        <route edges="-gneE5 N31"/>
    </vehicle>
    <vehicle id="208" depart="208.00">
        <route edges="-gneE11 -gneE9 -gneE0 gneE1 W21 E10"/>
    </vehicle>
    <vehicle id="211" depart="211.00">
        <route edges="W21 N13 gneE5 -gneE6 -gneE8 -gneE10"/>
    </vehicle>
    <vehicle id="215" depart="215.00">
        <route edges="gneE3 gneE0 gneE9 gneE11"/>
    </vehicle>
    <vehicle id="216" depart="216.00">
        <route edges="N13 gneE5 -gneE6 -gneE8 -gneE9 -gneE0 gneE1 W21"/>
    </vehicle>
    <vehicle id="217" depart="217.00">
        <route edges="-gneE8 -gneE9 -gneE0 gneE1"/>
    </vehicle>
    <vehicle id="218" depart="218.00">
        <route edges="gneE1 W21 E10"/>
    </vehicle>
    <vehicle id="228" depart="228.00">
        <route edges="gneE7 -gneE6 -gneE8 -gneE9"/>
    </vehicle>
    <vehicle id="232" depart="232.00">
        <route edges="S41 N13 gneE5 -gneE6 -gneE8 -gneE9 -gneE0 gneE1 W21 E10"/>
    </vehicle>
    <vehicle id="233" depart="233.00">
        <route edges="S41 N13 gneE5"/>
    </vehicle>
    <vehicle id="238" depart="238.00">
        <route edges="N31 S14"/>
    </vehicle>
    <vehicle id="239" depart="239.00">
        <route edges="-gneE0 gneE1 W21 N13 gneE5"/>
    </vehicle>
    <vehicle id="242" depart="242.00">
        <route edges="-gneE11 -gneE9 -gneE0 gneE1 W21 E10"/>
    </vehicle>
    <vehicle id="247" depart="247.00">
        <route edges="gneE3 gneE0 gneE9"/>
    </vehicle>
    <vehicle id="249" depart="249.00">
        <route edges="E01 W12"/>
    </vehicle>
    <vehicle id="250" depart="250.00">
        <route edges="-gneE11 gneE8 gneE6 -gneE7"/>
    </vehicle>
    <vehicle id="255" depart="255.00">
        <route edges="-gneE11 -gneE9 -gneE0 gneE1 W21"/>
    </vehicle>
    <vehicle id="262" depart="262.00">
        <route edges="gneE7 -gneE6 -gneE8 -gneE9 -gneE0 -gneE2"/>
    </vehicle>
    <vehicle id="267" depart="267.00">
        <route edges="-gneE8 -gneE9"/>
    </vehicle>
    <vehicle id="268" depart="268.00">
        <route edges="-gneE9 -gneE0 -gneE2"/>
    </vehicle>
    <vehicle id="269" depart="269.00">
        <route edges="gneE7 -gneE6 -gneE8 -gneE9 -gneE0 gneE1 W21 N13 gneE5 -gneE4"/>
    </vehicle>
    <vehicle id="270" depart="270.00">
        <route edges="-gneE6"/>
    </vehicle>
    <vehicle id="272" depart="272.00">
        <route edges="-gneE1"/>
    </vehicle>
    <vehicle id="273" depart="273.00">
        <route edges="gneE5 -gneE6 -gneE8 -gneE9 -gneE0 gneE1 W21 E10"/>
    </vehicle>
    <vehicle id="278" depart="278.00">
        <route edges="gneE1 W21 N13 gneE5 -gneE6 -gneE8"/>
    </vehicle>
    <vehicle id="279" depart="279.00">
        <route edges="S41 N13 gneE5 -gneE6 -gneE8 -gneE9 -gneE0 gneE1 W21 E10"/>
    </vehicle>
    <vehicle id="280" depart="280.00">
        <route edges="S41 N13 gneE5 -gneE6 -gneE8 -gneE9 -gneE0 gneE1 W21"/>
    </vehicle>
    <vehicle id="283" depart="283.00">
        <route edges="gneE2 gneE0 gneE9"/>
    </vehicle>
    <vehicle id="284" depart="284.00">
        <route edges="gneE1 W21 N13 gneE5 -gneE6"/>
    </vehicle>
    <vehicle id="290" depart="290.00">
        <route edges="-gneE8 -gneE10"/>
    </vehicle>
    <vehicle id="292" depart="292.00">
        <route edges="-gneE8 -gneE9 -gneE0 gneE1 W21 N13 gneE5 -gneE4"/>
    </vehicle>
    <vehicle id="295" depart="295.00">
        <route edges="W21 N13 gneE5 -gneE6 -gneE8"/>
    </vehicle>
    <vehicle id="296" depart="296.00">
        <route edges="gneE5 -gneE6 -gneE8 -gneE9 -gneE0 gneE1"/>
    </vehicle>
    <vehicle id="297" depart="297.00">
        <route edges="W21 N13 gneE5 -gneE6 -gneE8 -gneE9 -gneE0 gneE1"/>
    </vehicle>
    <vehicle id="301" depart="301.00">
        <route edges="gneE5 -gneE6 -gneE8 -gneE9 -gneE0 gneE1 W21"/>
    </vehicle>
    <vehicle id="303" depart="303.00">
        <route edges="-gneE9 -gneE0 gneE1 W21 N13"/>
    </vehicle>
    <vehicle id="304" depart="304.00">
        <route edges="-gneE9"/>
    </vehicle>
    <vehicle id="305" depart="305.00">
        <route edges="-gneE1"/>
    </vehicle>
    <vehicle id="307" depart="307.00">
        <route edges="gneE1 W21 E10"/>
    </vehicle>
    <vehicle id="310" depart="310.00">
        <route edges="W21 N13 gneE5"/>
    </vehicle>
    <vehicle id="313" depart="313.00">
        <route edges="S41 N13 gneE5 -gneE6 -gneE8 -gneE10"/>
    </vehicle>
    <vehicle id="314" depart="314.00">
        <route edges="W21"/>
    </vehicle>
    <vehicle id="315" depart="315.00">
        <route edges="N13 gneE5 -gneE6 -gneE8 -gneE9 -gneE0 gneE1 W21"/>
    </vehicle>
    <vehicle id="319" depart="319.00">
        <route edges="W12 -gneE1 -gneE3"/>
    </vehicle>
    <vehicle id="320" depart="320.00">
        <route edges="gneE3 gneE0 gneE9"/>
    </vehicle>
    <vehicle id="323" depart="323.00">
        <route edges="-gneE11 -gneE9 -gneE0"/>
    </vehicle>
    <vehicle id="326" depart="326.00">
        <route edges="gneE7 -gneE5"/>
    </vehicle>
    <vehicle id="331" depart="331.00">
        <route edges="-gneE6 -gneE8"/>
    </vehicle>
    <vehicle id="335" depart="335.00">
        <route edges="-gneE9"/>
    </vehicle>
    <vehicle id="337" depart="337.00">
        <route edges="gneE2 gneE0 gneE9 -gneE10"/>
    </vehicle>
    <vehicle id="339" depart="339.00">
        <route edges="W21 N13 gneE5 -gneE4"/>
    </vehicle>
    <vehicle id="342" depart="342.00">
        <route edges="gneE8 gneE6"/>
    </vehicle>
    <vehicle id="344" depart="344.00">
        <route edges="S41 N13 gneE5"/>
    </vehicle>
    <vehicle id="348" depart="348.00">
        <route edges="-gneE6 -gneE8 -gneE9 -gneE0 gneE1 W21 N13 gneE5"/>
    </vehicle>
    <vehicle id="349" depart="349.00">
        <route edges="-gneE6 -gneE8 -gneE9 -gneE0 gneE1"/>
    </vehicle>
    <vehicle id="350" depart="350.00">
        <route edges="gneE3 gneE0 gneE9"/>
    </vehicle>
    <vehicle id="363" depart="363.00">
        <route edges="gneE3 gneE1 W21 N13 gneE5 -gneE6 -gneE8"/>
    </vehicle>
    <vehicle id="367" depart="367.00">
        <route edges="gneE4 -gneE5 N31"/>
    </vehicle>
    <vehicle id="368" depart="368.00">
        <route edges="gneE2 -gneE3"/>
    </vehicle>
    <vehicle id="372" depart="372.00">
        <route edges="-gneE9"/>
    </vehicle>
    <vehicle id="377" depart="377.00">
        <route edges="gneE7 -gneE6 -gneE8"/>
    </vehicle>
    <vehicle id="381" depart="381.00">
        <route edges="S41 W12 -gneE1 -gneE2"/>
    </vehicle>
    <vehicle id="383" depart="383.00">
        <route edges="gneE1 W21 E10"/>
    </vehicle>
    <vehicle id="388" depart="388.00">
        <route edges="-gneE0 gneE1 W21 N13 gneE5 -gneE6 -gneE8"/>
    </vehicle>
    <vehicle id="395" depart="395.00">
        <route edges="-gneE8 -gneE9 -gneE0"/>
    </vehicle>
    <vehicle id="398" depart="398.00">
        <route edges="-gneE6"/>
    </vehicle>
    <vehicle id="401" depart="401.00">
        <route edges="gneE0"/>
    </vehicle>
    <vehicle id="402" depart="402.00">
        <route edges="gneE1 W21 N13 gneE5 -gneE6 -gneE8 -gneE10"/>
    </vehicle>
    <vehicle id="405" depart="405.00">
        <route edges="gneE6"/>
    </vehicle>
    <vehicle id="407" depart="407.00">
        <route edges="gneE9 -gneE10"/>
    </vehicle>
    <vehicle id="411" depart="411.00">
        <route edges="-gneE6 -gneE8 -gneE10"/>
    </vehicle>
    <vehicle id="412" depart="412.00">
        <route edges="gneE10 gneE8 gneE6"/>
    </vehicle>
    <vehicle id="418" depart="418.00">
        <route edges="-gneE11 -gneE9 -gneE0 gneE1 W21"/>
    </vehicle>
    <vehicle id="424" depart="424.00">
        <route edges="gneE7 -gneE6 -gneE8 -gneE10"/>
    </vehicle>
    <vehicle id="425" depart="425.00">
        <route edges="-gneE0 gneE1 W21 N13"/>
    </vehicle>
    <vehicle id="431" depart="431.00">
        <route edges="-gneE0 gneE1 W21 N13 gneE5 -gneE4"/>
    </vehicle>
    <vehicle id="434" depart="434.00">
        <route edges="-gneE9 -gneE0 gneE1 W21 N13 gneE5 -gneE6"/>
    </vehicle>
    <vehicle id="435" depart="435.00">
        <route edges="gneE1 W21 N13 gneE5 -gneE6 -gneE8 -gneE10"/>
    </vehicle>
    <vehicle id="438" depart="438.00">
        <route edges="-gneE8 -gneE9"/>
    </vehicle>
    <vehicle id="443" depart="443.00">
        <route edges="gneE10 gneE8 gneE6 -gneE7"/>
    </vehicle>
    <vehicle id="445" depart="445.00">
        <route edges="-gneE0 gneE1 W21 E10"/>
    </vehicle>
    <vehicle id="450" depart="450.00">
        <route edges="-gneE0 gneE1 W21 N13 gneE5 -gneE6 -gneE8 -gneE10"/>
    </vehicle>
    <vehicle id="454" depart="454.00">
        <route edges="-gneE0 gneE1 W21 N13 gneE5 -gneE6 -gneE8 -gneE9"/>
    </vehicle>
    <vehicle id="455" depart="455.00">
        <route edges="gneE5 -gneE6 -gneE8"/>
    </vehicle>
    <vehicle id="456" depart="456.00">
        <route edges="-gneE11 -gneE9 -gneE0"/>
    </vehicle>
    <vehicle id="461" depart="461.00">
        <route edges="W21 E10"/>
    </vehicle>
    <vehicle id="462" depart="462.00">
        <route edges="W21 N13 gneE5 -gneE6 -gneE8 -gneE9 -gneE0 gneE1"/>
    </vehicle>
    <vehicle id="464" depart="464.00">
        <route edges="-gneE0 gneE1 W21 N13"/>
    </vehicle>
    <vehicle id="467" depart="467.00">
        <route edges="-gneE9 -gneE0 gneE1"/>
    </vehicle>
    <vehicle id="470" depart="470.00">
        <route edges="gneE1 W21 N13 gneE5 -gneE6 -gneE8 -gneE10"/>
    </vehicle>
    <vehicle id="471" depart="471.00">
        <route edges="gneE7 -gneE5 N31 E10"/>
    </vehicle>
    <vehicle id="476" depart="476.00">
        <route edges="W21 N13 gneE5 -gneE6 -gneE8"/>
    </vehicle>
    <vehicle id="478" depart="478.00">
        <route edges="-gneE0"/>
    </vehicle>
    <vehicle id="479" depart="479.00">
        <route edges="N13 gneE5 -gneE6 -gneE8 -gneE9"/>
    </vehicle>
    <vehicle id="482" depart="482.00">
        <route edges="gneE2 gneE0 gneE9 gneE11"/>
    </vehicle>
    <vehicle id="483" depart="483.00">
        <route edges="-gneE8 -gneE9 -gneE0 gneE1 W21"/>
    </vehicle>
    <vehicle id="484" depart="484.00">
        <route edges="gneE1 W21 N13 gneE5 -gneE4"/>
    </vehicle>
    <vehicle id="486" depart="486.00">
        <route edges="S41 W12 -gneE1 -gneE3"/>
    </vehicle>
    <vehicle id="487" depart="487.00">
        <route edges="S41 N13 gneE5 -gneE6 -gneE8 -gneE9 -gneE0 gneE1 W21 E10"/>
    </vehicle>
    <vehicle id="490" depart="490.00">
        <route edges="S41 N13 gneE5 -gneE6 -gneE8 -gneE9 -gneE0 gneE1"/>
    </vehicle>
    <vehicle id="500" depart="500.00">
        <route edges="-gneE0 -gneE2"/>
    </vehicle>
    <vehicle id="503" depart="503.00">
        <route edges="gneE3 gneE1 W21 N13 gneE5 -gneE4"/>
    </vehicle>
    <vehicle id="504" depart="504.00">
        <route edges="-gneE8 -gneE9 -gneE0 gneE1 W21 N13 gneE5 -gneE6"/>
    </vehicle>
    <vehicle id="507" depart="507.00">
        <route edges="-gneE9 -gneE0 gneE1 W21 E10"/>
    </vehicle>
    <vehicle id="511" depart="511.00">
        <route edges="-gneE9 -gneE0 gneE1 W21 N13 gneE5 -gneE6"/>
    </vehicle>
    <vehicle id="512" depart="512.00">
        <route edges="gneE8"/>
    </vehicle>
    <vehicle id="513" depart="513.00">
        <route edges="-gneE8 -gneE9"/>
    </vehicle>
    <vehicle id="515" depart="515.00">
        <route edges="gneE4 -gneE5 N31 S14"/>
    </vehicle>
    <vehicle id="518" depart="518.00">
        <route edges="S41 N13 gneE5 -gneE6 -gneE8 -gneE9 -gneE0 gneE1 W21 E10"/>
    </vehicle>
    <vehicle id="523" depart="523.00">
        <route edges="W21 N13 gneE5 -gneE6 -gneE8 -gneE10"/>
    </vehicle>
    <vehicle id="524" depart="524.00">
        <route edges="gneE4 -gneE5"/>
    </vehicle>
    <vehicle id="525" depart="525.00">
        <route edges="-gneE0"/>
    </vehicle>
    <vehicle id="526" depart="526.00">
        <route edges="S41 N13 gneE5 -gneE6 -gneE8 -gneE9 -gneE0 gneE1 W21 E10"/>
    </vehicle>
    <vehicle id="527" depart="527.00">
        <route edges="S41 N13 gneE5"/>
    </vehicle>
    <vehicle id="531" depart="531.00">
        <route edges="gneE5 -gneE6 -gneE8"/>
    </vehicle>
    <vehicle id="534" depart="534.00">
        <route edges="gneE7 -gneE6 -gneE8 -gneE9 -gneE0 gneE1 W21 N13 gneE5"/>
    </vehicle>
    <vehicle id="537" depart="537.00">
        <route edges="gneE5 -gneE6 -gneE8 -gneE9 -gneE0 -gneE2"/>
    </vehicle>
    <vehicle id="546" depart="546.00">
        <route edges="-gneE11 -gneE9 -gneE0 gneE1 W21 N13"/>
    </vehicle>
    <vehicle id="556" depart="556.00">
        <route edges="gneE7 -gneE6 -gneE8 -gneE9 -gneE0"/>
    </vehicle>
    <vehicle id="559" depart="559.00">
        <route edges="gneE3 gneE1"/>
    </vehicle>
    <vehicle id="560" depart="560.00">
        <route edges="gneE7 -gneE6"/>
    </vehicle>
    <vehicle id="561" depart="561.00">
        <route edges="-gneE11 gneE8 gneE6 -gneE4"/>
    </vehicle>
    <vehicle id="562" depart="562.00">
        <route edges="gneE1 W21 E10"/>
    </vehicle>
    <vehicle id="564" depart="564.00">
        <route edges="-gneE0 gneE1 W21 E10"/>
    </vehicle>
    <vehicle id="566" depart="566.00">
        <route edges="W21 N13 gneE5 -gneE6 -gneE8 -gneE9 -gneE0 -gneE2"/>
    </vehicle>
    <vehicle id="569" depart="569.00">
        <route edges="-gneE0"/>
    </vehicle>
    <vehicle id="571" depart="571.00">
        <route edges="gneE7 -gneE6 -gneE8 -gneE9 -gneE0 gneE1"/>
    </vehicle>
    <vehicle id="572" depart="572.00">
        <route edges="gneE1 W21 N13 gneE5 -gneE4"/>
    </vehicle>
    <vehicle id="575" depart="575.00">
        <route edges="-gneE0 gneE1 W21 N13"/>
    </vehicle>
    <vehicle id="577" depart="577.00">
        <route edges="gneE5 -gneE6 -gneE8 -gneE9 -gneE0"/>
    </vehicle>
    <vehicle id="578" depart="578.00">
        <route edges="-gneE11 gneE8 gneE6"/>
    </vehicle>
    <vehicle id="579" depart="579.00">
        <route edges="gneE7 -gneE6 -gneE8 -gneE9"/>
    </vehicle>
    <vehicle id="585" depart="585.00">
        <route edges="gneE5 -gneE6"/>
    </vehicle>
    <vehicle id="586" depart="586.00">
        <route edges="gneE6 -gneE4"/>
    </vehicle>
    <vehicle id="588" depart="588.00">
        <route edges="gneE3 gneE1"/>
    </vehicle>
    <vehicle id="589" depart="589.00">
        <route edges="N13"/>
    </vehicle>
    <vehicle id="592" depart="592.00">
        <route edges="gneE8"/>
    </vehicle>
    <vehicle id="598" depart="598.00">
        <route edges="S41 N13 gneE5 -gneE6 -gneE8 -gneE9"/>
    </vehicle>
    <vehicle id="604" depart="604.00">
        <route edges="gneE0 gneE9 gneE11"/>
    </vehicle>
    <vehicle id="608" depart="608.00">
        <route edges="gneE0 gneE9 -gneE10"/>
    </vehicle>
    <vehicle id="611" depart="611.00">
        <route edges="-gneE11 -gneE9 -gneE0 gneE1 W21 E10"/>
    </vehicle>
    <vehicle id="615" depart="615.00">
        <route edges="S41 N13 gneE5"/>
    </vehicle>
    <vehicle id="616" depart="616.00">
        <route edges="N13 gneE5"/>
    </vehicle>
    <vehicle id="617" depart="617.00">
        <route edges="-gneE0 gneE1 W21 N13 gneE5"/>
    </vehicle>
    <vehicle id="619" depart="619.00">
        <route edges="gneE3 gneE1 W21 N13 gneE5 -gneE6 -gneE8 -gneE9"/>
    </vehicle>
    <vehicle id="621" depart="621.00">
        <route edges="W21 N13 gneE5 -gneE6 -gneE8 -gneE9 -gneE0 -gneE2"/>
    </vehicle>
    <vehicle id="622" depart="622.00">
        <route edges="S41 N13 gneE5 -gneE6 -gneE8 -gneE9 -gneE0 gneE1 W21 E10"/>
    </vehicle>
    <vehicle id="623" depart="623.00">
        <route edges="-gneE9 -gneE0 gneE1 W21 N13 gneE5"/>
    </vehicle>
    <vehicle id="633" depart="633.00">
        <route edges="gneE10 gneE8 gneE6"/>
    </vehicle>
    <vehicle id="634" depart="634.00">
        <route edges="N13 gneE5 -gneE6"/>
    </vehicle>
    <vehicle id="638" depart="638.00">
        <route edges="-gneE5 N31"/>
    </vehicle>
    <vehicle id="640" depart="640.00">
        <route edges="gneE3 gneE0 gneE9"/>
    </vehicle>
    <vehicle id="642" depart="642.00">
        <route edges="S41 N13 gneE5 -gneE6 -gneE8"/>
    </vehicle>
    <vehicle id="644" depart="644.00">
        <route edges="-gneE8 -gneE9 -gneE0 -gneE2"/>
    </vehicle>
    <vehicle id="645" depart="645.00">
        <route edges="-gneE11 -gneE9 -gneE0 gneE1 W21 N13"/>
    </vehicle>
    <vehicle id="652" depart="652.00">
        <route edges="gneE3 gneE0"/>
    </vehicle>
    <vehicle id="655" depart="655.00">
        <route edges="gneE10 gneE8 gneE6"/>
    </vehicle>
    <vehicle id="656" depart="656.00">
        <route edges="-gneE8"/>
    </vehicle>
    <vehicle id="658" depart="658.00">
        <route edges="-gneE0 gneE1 W21 N13"/>
    </vehicle>
    <vehicle id="662" depart="662.00">
        <route edges="N13 gneE5"/>
    </vehicle>
    <vehicle id="666" depart="666.00">
        <route edges="-gneE11 -gneE9 -gneE0"/>
    </vehicle>
    <vehicle id="667" depart="667.00">
        <route edges="gneE1 W21 N13 gneE5 -gneE6 -gneE8 -gneE9 -gneE0 -gneE2"/>
    </vehicle>
    <vehicle id="670" depart="670.00">
        <route edges="E01 W12 -gneE1 -gneE3"/>
    </vehicle>
    <vehicle id="672" depart="672.00">
        <route edges="gneE1 W21 E10"/>
    </vehicle>
    <vehicle id="687" depart="687.00">
        <route edges="-gneE6 -gneE8 -gneE9 -gneE0"/>
    </vehicle>
    <vehicle id="689" depart="689.00">
        <route edges="N13 gneE5 -gneE6 -gneE8 -gneE9"/>
    </vehicle>
    <vehicle id="695" depart="695.00">
        <route edges="-gneE6 -gneE8 -gneE9 -gneE0 gneE1 W21 N13 gneE5"/>
    </vehicle>
    <vehicle id="698" depart="698.00">
        <route edges="gneE7 -gneE5 N31"/>
    </vehicle>
    <vehicle id="706" depart="706.00">
        <route edges="gneE7 -gneE5 N31 S14"/>
    </vehicle>
    <vehicle id="707" depart="707.00">
        <route edges="gneE3 gneE1 W21"/>
    </vehicle>
    <vehicle id="710" depart="710.00">
        <route edges="gneE10 gneE11"/>
    </vehicle>
    <vehicle id="719" depart="719.00">
        <route edges="-gneE0 -gneE2"/>
    </vehicle>
    <vehicle id="722" depart="722.00">
        <route edges="-gneE0 gneE1 W21 N13"/>
    </vehicle>
    <vehicle id="724" depart="724.00">
        <route edges="N13 gneE5 -gneE4"/>
    </vehicle>
    <vehicle id="726" depart="726.00">
        <route edges="-gneE11 -gneE9 -gneE0 gneE1 W21 N13"/>
    </vehicle>
    <vehicle id="729" depart="729.00">
        <route edges="-gneE6 -gneE8 -gneE9 -gneE0 gneE1 W21 E10"/>
    </vehicle>
    <vehicle id="739" depart="739.00">
        <route edges="gneE7 -gneE6"/>
    </vehicle>
    <vehicle id="744" depart="744.00">
        <route edges="gneE8 gneE6"/>
    </vehicle>
    <vehicle id="746" depart="746.00">
        <route edges="W12 -gneE1 -gneE2"/>
    </vehicle>
    <vehicle id="750" depart="750.00">
        <route edges="gneE3 gneE0"/>
    </vehicle>
    <vehicle id="754" depart="754.00">
        <route edges="N13 gneE5 -gneE6 -gneE8 -gneE9 -gneE0 gneE1 W21"/>
    </vehicle>
    <vehicle id="756" depart="756.00">
        <route edges="gneE4 -gneE7"/>
    </vehicle>
    <vehicle id="757" depart="757.00">
        <route edges="-gneE11 -gneE9 -gneE0 gneE1"/>
    </vehicle>
    <vehicle id="759" depart="759.00">
        <route edges="-gneE9 -gneE0 gneE1 W21 N13 gneE5 -gneE4"/>
    </vehicle>
    <vehicle id="760" depart="760.00">
        <route edges="-gneE9 -gneE0 -gneE2"/>
    </vehicle>
    <vehicle id="764" depart="764.00">
        <route edges="-gneE11 gneE8 gneE6 -gneE4"/>
    </vehicle>
    <vehicle id="766" depart="766.00">
        <route edges="-gneE6 -gneE8 -gneE9 -gneE0 gneE1 W21 N13 gneE5"/>
    </vehicle>
    <vehicle id="769" depart="769.00">
        <route edges="gneE4 -gneE5 N31"/>
    </vehicle>
    <vehicle id="778" depart="778.00">
        <route edges="gneE4 -gneE5 N31 S14"/>
    </vehicle>
    <vehicle id="781" depart="781.00">
        <route edges="gneE2 gneE0 gneE9 gneE11"/>
    </vehicle>
    <vehicle id="782" depart="782.00">
        <route edges="-gneE0 gneE1 W21"/>
    </vehicle>
    <vehicle id="784" depart="784.00">
        <route edges="gneE5 -gneE6 -gneE8 -gneE9 -gneE0"/>
    </vehicle>
    <vehicle id="786" depart="786.00">
        <route edges="gneE3 gneE1 W21 N13 gneE5"/>
    </vehicle>
    <vehicle id="797" depart="797.00">
        <route edges="gneE5 -gneE6"/>
    </vehicle>
    <vehicle id="799" depart="799.00">
        <route edges="-gneE8 -gneE10"/>
    </vehicle>
    <vehicle id="802" depart="802.00">
        <route edges="-gneE9 -gneE0 gneE1 W21 E10"/>
    </vehicle>
    <vehicle id="808" depart="808.00">
        <route edges="-gneE0 gneE1 W21"/>
    </vehicle>
    <vehicle id="810" depart="810.00">
        <route edges="S41 N13 gneE5 -gneE6 -gneE8 -gneE9 -gneE0 gneE1 W21"/>
    </vehicle>
    <vehicle id="812" depart="812.00">
        <route edges="-gneE0"/>
    </vehicle>
    <vehicle id="820" depart="820.00">
        <route edges="W21 N13 gneE5 -gneE6 -gneE8 -gneE9"/>
    </vehicle>
    <vehicle id="822" depart="822.00">
        <route edges="gneE7 -gneE5"/>
    </vehicle>
    <vehicle id="823" depart="823.00">
        <route edges="-gneE8 -gneE9 -gneE0 gneE1 W21 N13 gneE5 -gneE6"/>
    </vehicle>
    <vehicle id="826" depart="826.00">
        <route edges="gneE5 -gneE6"/>
    </vehicle>
    <vehicle id="827" depart="827.00">
        <route edges="-gneE8 -gneE9 -gneE0 gneE1 W21 N13"/>
    </vehicle>
    <vehicle id="839" depart="839.00">
        <route edges="gneE4 -gneE7"/>
    </vehicle>