<?xml version="1.0" encoding="UTF-8"?>

<!-- generated on 2022-05-13 12:45:09 by Eclipse SUMO duarouter Version 1.9.1
<configuration xmlns:xsi="http://www.w3.org/2001/XMLSchema-instance" xsi:noNamespaceSchemaLocation="http://sumo.dlr.de/xsd/duarouterConfiguration.xsd">

    <input>
        <net-file value="Network\fourth\fourth.net.xml"/>
        <route-files value="trips.trips.xml"/>
    </input>

    <output>
        <output-file value="Network\fourth\testing.rou.xml"/>
        <alternatives-output value="Network\fourth\testing.rou.alt.xml"/>
    </output>

    <time>
        <begin value="0"/>
        <end value="100000"/>
    </time>

    <report>
        <no-warnings value="true"/>
        <ignore-errors value="true"/>
        <no-step-log value="true"/>
    </report>

</configuration>
-->

<routes xmlns:xsi="http://www.w3.org/2001/XMLSchema-instance" xsi:noNamespaceSchemaLocation="http://sumo.dlr.de/xsd/routes_file.xsd">
    <vehicle id="8" depart="8.00">
        <route edges="-gneE11 -gneE9 -gneE0 gneE1 W21 N13 gneE5"/>
    </vehicle>
    <vehicle id="16" depart="16.00">
        <route edges="W21 N13 gneE5 -gneE6 -gneE8 -gneE9"/>
    </vehicle>
    <vehicle id="17" depart="17.00">
        <route edges="gneE3 gneE0 gneE9 -gneE10"/>
    </vehicle>
    <vehicle id="26" depart="26.00">
        <route edges="-gneE8 -gneE9 -gneE0"/>
    </vehicle>
    <vehicle id="29" depart="29.00">
        <route edges="W12 -gneE1"/>
    </vehicle>
    <vehicle id="32" depart="32.00">
        <route edges="-gneE5 N31"/>
    </vehicle>
    <vehicle id="33" depart="33.00">
        <route edges="gneE7 -gneE6 -gneE8 -gneE9 -gneE0 -gneE2"/>
    </vehicle>
    <vehicle id="37" depart="37.00">
        <route edges="gneE6 -gneE7"/>
    </vehicle>
    <vehicle id="42" depart="42.00">
        <route edges="gneE1 W21 N13 gneE5 -gneE4"/>
    </vehicle>
    <vehicle id="50" depart="50.00">
        <route edges="gneE7 -gneE6"/>
    </vehicle>
    <vehicle id="53" depart="53.00">
        <route edges="W21 N13 gneE5"/>
    </vehicle>
    <vehicle id="59" depart="59.00">
        <route edges="S41 N13"/>
    </vehicle>
    <vehicle id="66" depart="66.00">
        <route edges="gneE3 gneE1 W21"/>
    </vehicle>
    <vehicle id="67" depart="67.00">
        <route edges="gneE0 gneE9"/>
    </vehicle>
    <vehicle id="72" depart="72.00">
        <route edges="-gneE1"/>
    </vehicle>
    <vehicle id="74" depart="74.00">
        <route edges="-gneE9 -gneE0 gneE1"/>
    </vehicle>
    <vehicle id="77" depart="77.00">
        <route edges="-gneE8 -gneE9 -gneE0 gneE1"/>
    </vehicle>
    <vehicle id="78" depart="78.00">
        <route edges="gneE3 gneE0 gneE9 -gneE10"/>
    </vehicle>
    <vehicle id="80" depart="80.00">
        <route edges="-gneE11 -gneE9 -gneE0 gneE1 W21 N13 gneE5 -gneE6 -gneE8 -gneE10"/>
    </vehicle>
    <vehicle id="82" depart="82.00">
        <route edges="gneE7 -gneE5"/>
    </vehicle>
    <vehicle id="85" depart="85.00">
        <route edges="gneE7 -gneE6 -gneE8 -gneE9 -gneE0"/>
    </vehicle>
    <vehicle id="87" depart="87.00">
        <route edges="gneE2 gneE0 gneE9 gneE11"/>
    </vehicle>
    <vehicle id="88" depart="88.00">
        <route edges="gneE10 gneE8 gneE6 -gneE7"/>
    </vehicle>
    <vehicle id="89" depart="89.00">
        <route edges="gneE4 -gneE5 N31 E10"/>
    </vehicle>
    <vehicle id="91" depart="91.00">
        <route edges="gneE3 gneE0"/>
    </vehicle>
    <vehicle id="96" depart="96.00">
        <route edges="-gneE8 -gneE9 -gneE0 -gneE2"/>
    </vehicle>
    <vehicle id="97" depart="97.00">
        <route edges="gneE5 -gneE6 -gneE8 -gneE9 -gneE0 -gneE2"/>
    </vehicle>
    <vehicle id="98" depart="98.00">
        <route edges="gneE1 W21 N13 gneE5 -gneE6 -gneE8 -gneE10"/>
    </vehicle>
    <vehicle id="101" depart="101.00">
        <route edges="W21 N13 gneE5 -gneE6 -gneE8 -gneE9"/>
    </vehicle>
    <vehicle id="102" depart="102.00">
        <route edges="-gneE0 gneE1 W21 N13 gneE5 -gneE6 -gneE8"/>
    </vehicle>
    <vehicle id="105" depart="105.00">
        <route edges="gneE1 W21 N13 gneE5 -gneE4"/>
    </vehicle>
    <vehicle id="106" depart="106.00">
        <route edges="W21 N13 gneE5 -gneE6 -gneE8"/>
    </vehicle>
    <vehicle id="110" depart="110.00">
        <route edges="gneE5 -gneE4"/>
    </vehicle>
    <vehicle id="111" depart="111.00">
        <route edges="-gneE9 -gneE0 gneE1 W21 N13"/>
    </vehicle>
    <vehicle id="112" depart="112.00">
        <route edges="W12 -gneE1 -gneE3"/>
    </vehicle>
    <vehicle id="116" depart="116.00">
        <route edges="gneE8 gneE6"/>
    </vehicle>
    <vehicle id="118" depart="118.00">
        <route edges="gneE7 -gneE5 N31"/>
    </vehicle>
    <vehicle id="120" depart="120.00">
        <route edges="gneE5 -gneE4"/>
    </vehicle>
    <vehicle id="123" depart="123.00">
        <route edges="N31"/>
    </vehicle>
    <vehicle id="125" depart="125.00">
        <route edges="gneE5 -gneE6 -gneE8 -gneE9 -gneE0"/>
    </vehicle>
    <vehicle id="134" depart="134.00">
        <route edges="gneE4 -gneE5 N31 E10"/>
    </vehicle>
    <vehicle id="135" depart="135.00">
        <route edges="gneE7 -gneE6 -gneE8 -gneE9 -gneE0 gneE1 W21 N13"/>
    </vehicle>
    <vehicle id="136" depart="136.00">
        <route edges="-gneE6 -gneE8 -gneE9 -gneE0 gneE1 W21 N13 gneE5"/>
    </vehicle>
    <vehicle id="137" depart="137.00">
        <route edges="-gneE9 -gneE0 gneE1 W21 N13 gneE5 -gneE6 -gneE8 -gneE10"/>
    </vehicle>
    <vehicle id="139" depart="139.00">
        <route edges="-gneE0 gneE1 W21 N13 gneE5 -gneE6 -gneE8 -gneE9"/>
    </vehicle>
    <vehicle id="145" depart="145.00">
        <route edges="-gneE0 gneE1 W21 N13"/>
    </vehicle>
    <vehicle id="146" depart="146.00">
        <route edges="gneE6 -gneE4"/>
    </vehicle>
    <vehicle id="147" depart="147.00">
        <route edges="gneE2 -gneE3"/>
    </vehicle>
    <vehicle id="151" depart="151.00">
        <route edges="N13 gneE5 -gneE6"/>
    </vehicle>
    <vehicle id="161" depart="161.00">
        <route edges="W21 N13 gneE5 -gneE6 -gneE8 -gneE9 -gneE0 gneE1"/>
    </vehicle>
    <vehicle id="164" depart="164.00">
        <route edges="W21 N13 gneE5 -gneE6"/>
    </vehicle>
    <vehicle id="165" depart="165.00">
        <route edges="gneE3 gneE1 W21 E10"/>
    </vehicle>
    <vehicle id="168" depart="168.00">
        <route edges="gneE3 gneE1 W21 N13"/>
    </vehicle>
    <vehicle id="171" depart="171.00">
        <route edges="gneE1 W21 N13"/>
    </vehicle>
    <vehicle id="176" depart="176.00">
        <route edges="-gneE11 gneE8 gneE6 -gneE7"/>
    </vehicle>
    <vehicle id="178" depart="178.00">
        <route edges="gneE3 gneE1 W21"/>
    </vehicle>
    <vehicle id="184" depart="184.00">
        <route edges="gneE1 W21 N13 gneE5 -gneE6"/>
    </vehicle>
    <vehicle id="188" depart="188.00">
        <route edges="gneE8 gneE6 -gneE4"/>
    </vehicle>
    <vehicle id="190" depart="190.00">
        <route edges="-gneE8 -gneE9 -gneE0 gneE1"/>
    </vehicle>
    <vehicle id="191" depart="191.00">
        <route edges="-gneE5 N31 E10"/>
    </vehicle>
    <vehicle id="194" depart="194.00">
        <route edges="gneE5 -gneE6 -gneE8 -gneE9 -gneE0 gneE1 W21 N13"/>
    </vehicle>
    <vehicle id="198" depart="198.00">
        <route edges="-gneE6 -gneE8 -gneE9 -gneE0 gneE1"/>
    </vehicle>
    <vehicle id="200" depart="200.00">
        <route edges="gneE3 gneE0 gneE9 -gneE10"/>
    </vehicle>
    <vehicle id="202" depart="202.00">
        <route edges="gneE7 -gneE6 -gneE8 -gneE9"/>
    </vehicle>
    <vehicle id="204" depart="204.00">
        <route edges="E01 S14"/>
    </vehicle>
    <vehicle id="208" depart="208.00">
        <route edges="gneE4 -gneE5"/>
    </vehicle>
    <vehicle id="209" depart="209.00">
        <route edges="-gneE6 -gneE8 -gneE9 -gneE0 gneE1 W21"/>
    </vehicle>
    <vehicle id="218" depart="218.00">
        <route edges="W21 N13 gneE5 -gneE6 -gneE8"/>
    </vehicle>
    <vehicle id="223" depart="223.00">
        <route edges="-gneE9 -gneE0 gneE1"/>
    </vehicle>
    <vehicle id="224" depart="224.00">
        <route edges="-gneE8 -gneE10"/>
    </vehicle>
    <vehicle id="226" depart="226.00">
        <route edges="W21 N13 gneE5 -gneE6"/>
    </vehicle>
    <vehicle id="228" depart="228.00">
        <route edges="gneE6"/>
    </vehicle>
    <vehicle id="231" depart="231.00">
        <route edges="-gneE6 -gneE8 -gneE9 -gneE0 gneE1 W21 E10"/>
    </vehicle>
    <vehicle id="236" depart="236.00">
        <route edges="-gneE11 -gneE9 -gneE0 gneE1 W21 N13 gneE5 -gneE6"/>
    </vehicle>
    <vehicle id="239" depart="239.00">
        <route edges="-gneE6 -gneE8 -gneE9"/>
    </vehicle>
    <vehicle id="244" depart="244.00">
        <route edges="-gneE6 -gneE8 -gneE10"/>
    </vehicle>
    <vehicle id="247" depart="247.00">
        <route edges="-gneE11 -gneE9 -gneE0 gneE1 W21 N13 gneE5 -gneE6"/>
    </vehicle>
    <vehicle id="248" depart="248.00">
        <route edges="W21 N13 gneE5 -gneE6 -gneE8"/>
    </vehicle>
    <vehicle id="249" depart="249.00">
        <route edges="gneE7 -gneE6 -gneE8 -gneE9"/>
    </vehicle>
    <vehicle id="253" depart="253.00">
        <route edges="W21 N13 gneE5 -gneE6 -gneE8 -gneE9"/>
    </vehicle>
    <vehicle id="255" depart="255.00">
        <route edges="gneE7 -gneE6 -gneE8 -gneE9 -gneE0"/>
    </vehicle>
    <vehicle id="260" depart="260.00">
        <route edges="W21 N13 gneE5 -gneE6"/>
    </vehicle>
    <vehicle id="266" depart="266.00">
        <route edges="S41 N13 gneE5 -gneE6 -gneE8 -gneE9 -gneE0 gneE1"/>
    </vehicle>
    <vehicle id="268" depart="268.00">
        <route edges="gneE7 -gneE6 -gneE8 -gneE9 -gneE0 gneE1 W21 N13 gneE5"/>
    </vehicle>
    <vehicle id="270" depart="270.00">
        <route edges="-gneE8"/>
    </vehicle>
    <vehicle id="274" depart="274.00">
        <route edges="-gneE9 -gneE0 gneE1 W21 N13 gneE5 -gneE6 -gneE8"/>
    </vehicle>
    <vehicle id="275" depart="275.00">
        <route edges="gneE5 -gneE6 -gneE8 -gneE9 -gneE0 gneE1"/>
    </vehicle>
    <vehicle id="276" depart="276.00">
        <route edges="gneE1 W21 N13 gneE5 -gneE6 -gneE8 -gneE10"/>
    </vehicle>
    <vehicle id="280" depart="280.00">
        <route edges="gneE5 -gneE6 -gneE8 -gneE9"/>
    </vehicle>
    <vehicle id="284" depart="284.00">
        <route edges="-gneE9 -gneE0 gneE1 W21 N13 gneE5 -gneE6 -gneE8"/>
    </vehicle>
    <vehicle id="288" depart="288.00">
        <route edges="-gneE11 -gneE9 -gneE0 gneE1 W21 N13 gneE5 -gneE6"/>
    </vehicle>
    <vehicle id="291" depart="291.00">
        <route edges="W12 -gneE1 -gneE3"/>
    </vehicle>
    <vehicle id="294" depart="294.00">
        <route edges="W21 N13"/>
    </vehicle>
    <vehicle id="307" depart="307.00">
        <route edges="S41 N13 gneE5 -gneE6 -gneE8 -gneE10"/>
    </vehicle>
    <vehicle id="309" depart="309.00">
        <route edges="W21 N13 gneE5 -gneE6"/>
    </vehicle>
    <vehicle id="311" depart="311.00">
        <route edges="gneE10 gneE8 gneE6 -gneE7"/>
    </vehicle>
    <vehicle id="312" depart="312.00">
        <route edges="-gneE6 -gneE8 -gneE9 -gneE0 gneE1 W21 N13 gneE5 -gneE4"/>
    </vehicle>
    <vehicle id="314" depart="314.00">
        <route edges="gneE4 -gneE5 N31"/>
    </vehicle>
    <vehicle id="316" depart="316.00">
        <route edges="-gneE0"/>
    </vehicle>
    <vehicle id="320" depart="320.00">
        <route edges="W12 -gneE1 -gneE2"/>
    </vehicle>
    <vehicle id="322" depart="322.00">
        <route edges="N13 gneE5 -gneE6 -gneE8 -gneE10"/>
    </vehicle>
    <vehicle id="326" depart="326.00">
        <route edges="gneE4 -gneE5 N31 E10"/>
    </vehicle>
    <vehicle id="327" depart="327.00">
        <route edges="-gneE11 -gneE9 -gneE0 gneE1 W21 E10"/>
    </vehicle>
    <vehicle id="330" depart="330.00">
        <route edges="gneE1 W21 N13 gneE5 -gneE6 -gneE8 -gneE9 -gneE0 -gneE2"/>
    </vehicle>
    <vehicle id="336" depart="336.00">
        <route edges="gneE9 gneE11"/>
    </vehicle>
    <vehicle id="337" depart="337.00">
        <route edges="-gneE11 -gneE9"/>
    </vehicle>
    <vehicle id="339" depart="339.00">
        <route edges="-gneE11 -gneE9 -gneE0 gneE1 W21"/>
    </vehicle>
    <vehicle id="341" depart="341.00">
        <route edges="W21 N13 gneE5 -gneE6"/>
    </vehicle>
    <vehicle id="343" depart="343.00">
        <route edges="-gneE6 -gneE8 -gneE10"/>
    </vehicle>
    <vehicle id="345" depart="345.00">
        <route edges="-gneE8"/>
    </vehicle>
    <vehicle id="349" depart="349.00">
        <route edges="N13 gneE5 -gneE6 -gneE8 -gneE10"/>
    </vehicle>
    <vehicle id="353" depart="353.00">
        <route edges="S41 N13 gneE5"/>
    </vehicle>
    <vehicle id="354" depart="354.00">
        <route edges="gneE5 -gneE6 -gneE8 -gneE9 -gneE0"/>
    </vehicle>
    <vehicle id="355" depart="355.00">
        <route edges="gneE4 -gneE5 N31 E10"/>
    </vehicle>
    <vehicle id="358" depart="358.00">
        <route edges="-gneE6 -gneE8 -gneE9 -gneE0 gneE1 W21 N13 gneE5 -gneE4"/>
    </vehicle>
    <vehicle id="360" depart="360.00">
        <route edges="E01 W12 -gneE1 -gneE2"/>
    </vehicle>
    <vehicle id="361" depart="361.00">
        <route edges="gneE7 -gneE6"/>
    </vehicle>
    <vehicle id="370" depart="370.00">
        <route edges="-gneE6 -gneE8 -gneE9 -gneE0 gneE1 W21 N13"/>
    </vehicle>
    <vehicle id="372" depart="372.00">
        <route edges="-gneE11 -gneE9 -gneE0 gneE1 W21 N13 gneE5"/>
    </vehicle>
    <vehicle id="373" depart="373.00">
        <route edges="N13 gneE5"/>
    </vehicle>
    <vehicle id="375" depart="375.00">
        <route edges="gneE4 -gneE7"/>
    </vehicle>
    <vehicle id="382" depart="382.00">
        <route edges="gneE3 gneE1 W21 N13 gneE5"/>
    </vehicle>
    <vehicle id="383" depart="383.00">
        <route edges="-gneE6 -gneE8 -gneE9 -gneE0 -gneE2"/>
    </vehicle>
    <vehicle id="390" depart="390.00">
        <route edges="S41 N13 gneE5 -gneE6 -gneE8 -gneE9 -gneE0 gneE1 W21"/>
    </vehicle>
    <vehicle id="391" depart="391.00">
        <route edges="S41 N13 gneE5 -gneE6 -gneE8 -gneE9 -gneE0 gneE1 W21 E10"/>
    </vehicle>
    <vehicle id="392" depart="392.00">
        <route edges="-gneE6 -gneE8 -gneE9 -gneE0"/>
    </vehicle>
    <vehicle id="393" depart="393.00">
        <route edges="-gneE11 -gneE9 -gneE0 gneE1 W21 E10"/>
    </vehicle>
    <vehicle id="395" depart="395.00">
        <route edges="gneE3 gneE1 W21 N13 gneE5 -gneE6 -gneE8 -gneE9"/>
    </vehicle>
    <vehicle id="400" depart="400.00">
        <route edges="S41 N13 gneE5 -gneE6"/>
    </vehicle>
    <vehicle id="408" depart="408.00">
        <route edges="gneE1 W21 N13 gneE5 -gneE6"/>
    </vehicle>
    <vehicle id="411" depart="411.00">
        <route edges="-gneE8 -gneE9 -gneE0 gneE1 W21 N13 gneE5 -gneE4"/>
    </vehicle>
    <vehicle id="414" depart="414.00">
        <route edges="gneE1 W21 N13 gneE5 -gneE6 -gneE8 -gneE9"/>
    </vehicle>
    <vehicle id="415" depart="415.00">
        <route edges="gneE7 -gneE5 N31 S14"/>
    </vehicle>
    <vehicle id="416" depart="416.00">
        <route edges="-gneE0"/>
    </vehicle>
    <vehicle id="418" depart="418.00">
        <route edges="gneE0 gneE9 gneE11"/>
    </vehicle>
    <vehicle id="419" depart="419.00">
        <route edges="gneE7 -gneE6"/>
    </vehicle>
    <vehicle id="420" depart="420.00">
        <route edges="gneE3 gneE1 W21 N13 gneE5 -gneE4"/>
    </vehicle>
    <vehicle id="423" depart="423.00">
        <route edges="gneE6 -gneE7"/>
    </vehicle>
    <vehicle id="426" depart="426.00">
        <route edges="W12 -gneE1 -gneE2"/>
    </vehicle>
    <vehicle id="428" depart="428.00">
        <route edges="-gneE11 gneE8 gneE6 -gneE4"/>
    </vehicle>
    <vehicle id="433" depart="433.00">
        <route edges="gneE3 gneE1 W21 N13 gneE5 -gneE6"/>
    </vehicle>
    <vehicle id="438" depart="438.00">
        <route edges="-gneE9 -gneE0 -gneE2"/>
    </vehicle>
    <vehicle id="442" depart="442.00">
        <route edges="-gneE8 -gneE9 -gneE0 gneE1 W21 N13 gneE5 -gneE4"/>
    </vehicle>
    <vehicle id="444" depart="444.00">
        <route edges="-gneE0 gneE1 W21 N13 gneE5"/>
    </vehicle>
    <vehicle id="445" depart="445.00">
        <route edges="gneE1 W21 E10"/>
    </vehicle>
    <vehicle id="447" depart="447.00">
        <route edges="gneE2 gneE0 gneE9"/>
    </vehicle>
    <vehicle id="448" depart="448.00">
        <route edges="-gneE8"/>
    </vehicle>
    <vehicle id="449" depart="449.00">
        <route edges="W12 -gneE1"/>
    </vehicle>
    <vehicle id="452" depart="452.00">
        <route edges="gneE5 -gneE6 -gneE8 -gneE10"/>
    </vehicle>
    <vehicle id="453" depart="453.00">
        <route edges="gneE1 W21 N13 gneE5 -gneE6 -gneE8 -gneE10"/>
    </vehicle>
    <vehicle id="461" depart="461.00">
        <route edges="W12 -gneE1 -gneE2"/>
    </vehicle>
    <vehicle id="462" depart="462.00">
        <route edges="E01 W12 -gneE1 -gneE2"/>
    </vehicle>
    <vehicle id="464" depart="464.00">
        <route edges="gneE3 gneE0 gneE9"/>
    </vehicle>
    <vehicle id="465" depart="465.00">
        <route edges="gneE4 -gneE5"/>
    </vehicle>
    <vehicle id="469" depart="469.00">
        <route edges="gneE9 gneE11"/>
    </vehicle>
    <vehicle id="470" depart="470.00">
        <route edges="-gneE11 -gneE9 -gneE0 gneE1 W21 E10"/>
    </vehicle>
    <vehicle id="473" depart="473.00">
        <route edges="W21"/>
    </vehicle>
    <vehicle id="476" depart="476.00">
        <route edges="W21 N13 gneE5"/>
    </vehicle>
    <vehicle id="478" depart="478.00">
        <route edges="gneE3 gneE1 W21 N13 gneE5 -gneE6 -gneE8 -gneE9"/>
    </vehicle>
    <vehicle id="481" depart="481.00">
        <route edges="-gneE11 -gneE9 -gneE0"/>
    </vehicle>
    <vehicle id="484" depart="484.00">
        <route edges="gneE3 gneE0 gneE9 -gneE10"/>
    </vehicle>
    <vehicle id="487" depart="487.00">
        <route edges="-gneE8 -gneE9 -gneE0"/>
    </vehicle>
    <vehicle id="490" depart="490.00">
        <route edges="gneE1"/>
    </vehicle>
    <vehicle id="492" depart="492.00">
        <route edges="S41 N13 gneE5 -gneE6 -gneE8 -gneE9 -gneE0"/>
    </vehicle>
    <vehicle id="498" depart="498.00">
        <route edges="N13 gneE5 -gneE6 -gneE8 -gneE9"/>
    </vehicle>
    <vehicle id="502" depart="502.00">
        <route edges="-gneE6 -gneE8 -gneE9 -gneE0 -gneE2"/>
    </vehicle>
    <vehicle id="505" depart="505.00">
        <route edges="gneE5 -gneE4"/>
    </vehicle>
    <vehicle id="508" depart="508.00">
        <route edges="gneE4 -gneE5 N31 E10"/>
    </vehicle>
    <vehicle id="509" depart="509.00">
        <route edges="-gneE9"/>
    </vehicle>
    <vehicle id="514" depart="514.00">
        <route edges="gneE3 gneE1 W21 N13 gneE5 -gneE6 -gneE8 -gneE9 -gneE0"/>
    </vehicle>
    <vehicle id="523" depart="523.00">
        <route edges="gneE5 -gneE6 -gneE8 -gneE9 -gneE0 -gneE2"/>
    </vehicle>
    <vehicle id="525" depart="525.00">
        <route edges="gneE7 -gneE6 -gneE8 -gneE9 -gneE0 gneE1 W21 N13"/>
    </vehicle>
    <vehicle id="526" depart="526.00">
        <route edges="gneE0 gneE9 gneE11"/>
    </vehicle>
    <vehicle id="529" depart="529.00">
        <route edges="gneE3 gneE1 W21 N13 gneE5 -gneE6 -gneE8"/>
    </vehicle>
    <vehicle id="530" depart="530.00">
        <route edges="gneE10 gneE8 gneE6"/>
    </vehicle>
    <vehicle id="531" depart="531.00">
        <route edges="-gneE11 -gneE9 -gneE0 gneE1 W21 N13 gneE5 -gneE6"/>
    </vehicle>
    <vehicle id="535" depart="535.00">
        <route edges="gneE1 W21 N13 gneE5 -gneE4"/>
    </vehicle>
    <vehicle id="541" depart="541.00">
        <route edges="-gneE8 -gneE9 -gneE0 gneE1"/>
    </vehicle>
    <vehicle id="544" depart="544.00">
        <route edges="gneE6"/>
    </vehicle>
    <vehicle id="547" depart="547.00">
        <route edges="-gneE5 N31 E10"/>
    </vehicle>
    <vehicle id="550" depart="550.00">
        <route edges="N13 gneE5 -gneE4"/>
    </vehicle>
    <vehicle id="555" depart="555.00">
        <route edges="gneE5 -gneE6 -gneE8 -gneE9 -gneE0 gneE1"/>
    </vehicle>
    <vehicle id="556" depart="556.00">
        <route edges="-gneE9 -gneE0 gneE1 W21 E10"/>
    </vehicle>
    <vehicle id="563" depart="563.00">
        <route edges="-gneE8 -gneE9 -gneE0 gneE1 W21 E10"/>
    </vehicle>
    <vehicle id="569" depart="569.00">
        <route edges="gneE5 -gneE6"/>
    </vehicle>
    <vehicle id="570" depart="570.00">
        <route edges="gneE7 -gneE6 -gneE8 -gneE9 -gneE0 gneE1 W21 N13 gneE5 -gneE4"/>
    </vehicle>
    <vehicle id="572" depart="572.00">
        <route edges="W12 -gneE1 -gneE3"/>
    </vehicle>
    <vehicle id="573" depart="573.00">
        <route edges="gneE3 gneE0 gneE9 gneE11"/>
    </vehicle>
    <vehicle id="576" depart="576.00">
        <route edges="gneE4 -gneE5 N31 S14"/>
    </vehicle>
    <vehicle id="577" depart="577.00">
        <route edges="-gneE6 -gneE8 -gneE9"/>
    </vehicle>
    <vehicle id="579" depart="579.00">
        <route edges="-gneE0 gneE1"/>
    </vehicle>
    <vehicle id="581" depart="581.00">
        <route edges="-gneE0 gneE1 W21 E10"/>
    </vehicle>
    <vehicle id="585" depart="585.00">
        <route edges="N31"/>
    </vehicle>
    <vehicle id="588" depart="588.00">
        <route edges="gneE7 -gneE6 -gneE8 -gneE9 -gneE0 gneE1"/>
    </vehicle>
    <vehicle id="593" depart="593.00">
        <route edges="-gneE8 -gneE9 -gneE0 gneE1 W21 N13 gneE5 -gneE6"/>
    </vehicle>
    <vehicle id="595" depart="595.00">
        <route edges="gneE9 -gneE10"/>
    </vehicle>
    <vehicle id="598" depart="598.00">
        <route edges="gneE4 -gneE7"/>
    </vehicle>
    <vehicle id="601" depart="601.00">
        <route edges="N13 gneE5 -gneE4"/>
    </vehicle>
    <vehicle id="602" depart="602.00">
        <route edges="-gneE5"/>
    </vehicle>
    <vehicle id="603" depart="603.00">
        <route edges="W21 N13 gneE5 -gneE6 -gneE8 -gneE9"/>
    </vehicle>
    <vehicle id="608" depart="608.00">
        <route edges="W21 N13 gneE5 -gneE6 -gneE8 -gneE10"/>
    </vehicle>
    <vehicle id="609" depart="609.00">
        <route edges="N13 gneE5 -gneE6 -gneE8 -gneE9"/>
    </vehicle>
    <vehicle id="611" depart="611.00">
        <route edges="W21 N13 gneE5 -gneE6 -gneE8 -gneE9 -gneE0 gneE1"/>
    </vehicle>
    <vehicle id="613" depart="613.00">
        <route edges="-gneE8 -gneE9 -gneE0 gneE1 W21 E10"/>
    </vehicle>
    <vehicle id="619" depart="619.00">
        <route edges="W21 N13 gneE5 -gneE6 -gneE8"/>
    </vehicle>
    <vehicle id="622" depart="622.00">
        <route edges="gneE1 W21 N13 gneE5"/>
    </vehicle>
    <vehicle id="625" depart="625.00">
        <route edges="-gneE11 gneE8 gneE6 -gneE7"/>
    </vehicle>
    <vehicle id="629" depart="629.00">
        <route edges="gneE9"/>
    </vehicle>
    <vehicle id="630" depart="630.00">
        <route edges="-gneE0"/>
    </vehicle>
    <vehicle id="632" depart="632.00">
        <route edges="gneE7 -gneE6 -gneE8 -gneE9 -gneE0"/>
    </vehicle>
    <vehicle id="634" depart="634.00">
        <route edges="gneE3 gneE0 gneE9 gneE11"/>
    </vehicle>
    <vehicle id="636" depart="636.00">
        <route edges="N13"/>
    </vehicle>
    <vehicle id="640" depart="640.00">
        <route edges="N31"/>
    </vehicle>
    <vehicle id="643" depart="643.00">
        <route edges="-gneE8 -gneE9 -gneE0 gneE1 W21 N13 gneE5"/>
    </vehicle>
    <vehicle id="646" depart="646.00">
        <route edges="E01 S14"/>
    </vehicle>
    <vehicle id="647" depart="647.00">
        <route edges="-gneE0 gneE1 W21 N13 gneE5 -gneE6 -gneE8 -gneE9"/>
    </vehicle>
    <vehicle id="648" depart="648.00">
        <route edges="N13 gneE5 -gneE6 -gneE8 -gneE9 -gneE0"/>
    </vehicle>
    <vehicle id="649" depart="649.00">
        <route edges="gneE0"/>
    </vehicle>
    <vehicle id="652" depart="652.00">
        <route edges="S41 N13 gneE5"/>
    </vehicle>
    <vehicle id="657" depart="657.00">
        <route edges="-gneE6 -gneE8 -gneE9 -gneE0"/>
    </vehicle>
    <vehicle id="661" depart="661.00">
        <route edges="N31 E10"/>
    </vehicle>
    <vehicle id="662" depart="662.00">
        <route edges="gneE5 -gneE6 -gneE8 -gneE9 -gneE0 gneE1 W21 N13"/>
    </vehicle>
    <vehicle id="667" depart="667.00">
        <route edges="S41 W12"/>
    </vehicle>
    <vehicle id="669" depart="669.00">
        <route edges="-gneE8 -gneE9"/>
    </vehicle>
    <vehicle id="671" depart="671.00">
        <route edges="gneE3 gneE1 W21 N13 gneE5 -gneE6 -gneE8 -gneE9 -gneE0 -gneE2"/>
    </vehicle>
    <vehicle id="675" depart="675.00">
        <route edges="S41 W12 -gneE1 -gneE2"/>
    </vehicle>
    <vehicle id="679" depart="679.00">
        <route edges="gneE7 -gneE5 N31 E10"/>
    </vehicle>
    <vehicle id="683" depart="683.00">
        <route edges="gneE7 -gneE6"/>
    </vehicle>
    <vehicle id="685" depart="685.00">
        <route edges="S41 W12 -gneE1"/>
    </vehicle>
    <vehicle id="687" depart="687.00">
        <route edges="-gneE0 gneE1 W21 N13 gneE5 -gneE6"/>
    </vehicle>
    <vehicle id="689" depart="689.00">
        <route edges="gneE7 -gneE5"/>
    </vehicle>
    <vehicle id="692" depart="692.00">
        <route edges="-gneE0 -gneE2"/>
    </vehicle>
    <vehicle id="693" depart="693.00">
        <route edges="-gneE5 N31"/>
    </vehicle>
    <vehicle id="696" depart="696.00">
        <route edges="W21 N13 gneE5 -gneE6 -gneE8"/>
    </vehicle>
    <vehicle id="698" depart="698.00">
        <route edges="-gneE0 gneE1 W21 N13 gneE5 -gneE6"/>
    </vehicle>
    <vehicle id="699" depart="699.00">
        <route edges="N13 gneE5 -gneE6 -gneE8 -gneE10"/>
    </vehicle>
    <vehicle id="702" depart="702.00">
        <route edges="-gneE6 -gneE8 -gneE9"/>
    </vehicle>
    <vehicle id="704" depart="704.00">
        <route edges="N13 gneE5"/>
    </vehicle>
    <vehicle id="706" depart="706.00">
        <route edges="-gneE6"/>
    </vehicle>
    <vehicle id="709" depart="709.00">
        <route edges="gneE5 -gneE6 -gneE8 -gneE9"/>
    </vehicle>
    <vehicle id="711" depart="711.00">
        <route edges="N13 gneE5 -gneE4"/>
    </vehicle>
    <vehicle id="712" depart="712.00">
        <route edges="-gneE9 -gneE0 gneE1 W21 N13 gneE5 -gneE6 -gneE8"/>
    </vehicle>
    <vehicle id="714" depart="714.00">
        <route edges="gneE5 -gneE6 -gneE8 -gneE9 -gneE0 gneE1 W21"/>
    </vehicle>
    <vehicle id="715" depart="715.00">
        <route edges="N31 E10"/>
    </vehicle>
    <vehicle id="717" depart="717.00">
        <route edges="gneE7 -gneE6 -gneE8 -gneE9 -gneE0 -gneE2"/>
    </vehicle>
    <vehicle id="722" depart="722.00">
        <route edges="N13 gneE5 -gneE6 -gneE8 -gneE10"/>
    </vehicle>
    <vehicle id="723" depart="723.00">
        <route edges="W21 N13 gneE5 -gneE6 -gneE8 -gneE9 -gneE0"/>
    </vehicle>
    <vehicle id="724" depart="724.00">
        <route edges="gneE5 -gneE6 -gneE8 -gneE9 -gneE0 gneE1 W21 E10"/>
    </vehicle>
    <vehicle id="727" depart="727.00">
        <route edges="gneE3 gneE0 gneE9 -gneE10"/>
    </vehicle>
    <vehicle id="730" depart="730.00">
        <route edges="E01 W12 -gneE1 -gneE2"/>
    </vehicle>
    <vehicle id="732" depart="732.00">
        <route edges="-gneE8 -gneE9 -gneE0 gneE1 W21 N13"/>
    </vehicle>
    <vehicle id="733" depart="733.00">
        <route edges="-gneE11 -gneE9 -gneE0 gneE1"/>
    </vehicle>
    <vehicle id="735" depart="735.00">
        <route edges="gneE7 -gneE6 -gneE8 -gneE9 -gneE0 gneE1 W21 N13 gneE5"/>
    </vehicle>
    <vehicle id="736" depart="736.00">
        <route edges="W21 N13 gneE5 -gneE4"/>
    </vehicle>
    <vehicle id="738" depart="738.00">
        <route edges="-gneE9 -gneE0 gneE1 W21 E10"/>
    </vehicle>
    <vehicle id="740" depart="740.00">
        <route edges="-gneE0 gneE1 W21"/>
    </vehicle>
    <vehicle id="741" depart="741.00">
        <route edges="N13 gneE5 -gneE6 -gneE8 -gneE9"/>
    </vehicle>
    <vehicle id="744" depart="744.00">
        <route edges="E01 W12 -gneE1 -gneE3"/>
    </vehicle>
    <vehicle id="745" depart="745.00">
        <route edges="gneE8 gneE6"/>
    </vehicle>
    <vehicle id="748" depart="748.00">
        <route edges="-gneE0 gneE1 W21 E10"/>
    </vehicle>
    <vehicle id="750" depart="750.00">
        <route edges="-gneE0 gneE1 W21 N13 gneE5 -gneE4"/>
    </vehicle>
    <vehicle id="751" depart="751.00">
        <route edges="-gneE9 -gneE0 gneE1 W21"/>
    </vehicle>
    <vehicle id="755" depart="755.00">
        <route edges="gneE3 gneE1 W21 N13 gneE5 -gneE6"/>
    </vehicle>
    <vehicle id="758" depart="758.00">
        <route edges="-gneE11 -gneE9 -gneE0 gneE1 W21 N13 gneE5 -gneE6"/>
    </vehicle>
    <vehicle id="763" depart="763.00">
        <route edges="-gneE8 -gneE9"/>
    </vehicle>
    <vehicle id="765" depart="765.00">
        <route edges="-gneE6 -gneE8 -gneE9"/>
    </vehicle>
    <vehicle id="767" depart="767.00">
        <route edges="-gneE0"/>
    </vehicle>
    <vehicle id="788" depart="788.00">
        <route edges="gneE1 W21 N13 gneE5"/>
    </vehicle>
    <vehicle id="789" depart="789.00">
        <route edges="S41 N13 gneE5 -gneE6 -gneE8 -gneE9 -gneE0 gneE1 W21"/>
    </vehicle>
    <vehicle id="790" depart="790.00">
        <route edges="gneE7 -gneE6 -gneE8 -gneE9 -gneE0 gneE1 W21"/>
    </vehicle>
    <vehicle id="792" depart="792.00">
        <route edges="-gneE6 -gneE8 -gneE9"/>
    </vehicle>
    <vehicle id="794" depart="794.00">
        <route edges="gneE9 gneE11"/>
    </vehicle>
    <vehicle id="800" depart="800.00">
        <route edges="W21 N13 gneE5"/>
    </vehicle>
    <vehicle id="810" depart="810.00">
        <route edges="-gneE11 -gneE9 -gneE0 gneE1 W21 N13"/>
    </vehicle>
    <vehicle id="811" depart="811.00">
        <route edges="gneE3 gneE1 W21 N13 gneE5 -gneE6 -gneE8"/>
    </vehicle>
    <vehicle id="822" depart="822.00">
        <route edges="-gneE9 -gneE0 gneE1 W21 N13 gneE5 -gneE6 -gneE8"/>
    </vehicle>