<?xml version="1.0" encoding="UTF-8"?>

<!-- generated on 2022-04-06 23:43:43 by Eclipse SUMO duarouter Version 1.9.1
<configuration xmlns:xsi="http://www.w3.org/2001/XMLSchema-instance" xsi:noNamespaceSchemaLocation="http://sumo.dlr.de/xsd/duarouterConfiguration.xsd">

    <input>
        <net-file value=".\Network\double\double.net.xml"/>
        <route-files value="trips.trips.xml"/>
    </input>

    <output>
        <output-file value=".\Network\double\doubleRoutes.rou.xml"/>
        <alternatives-output value=".\Network\double\doubleRoutes.rou.alt.xml"/>
    </output>

    <time>
        <begin value="0"/>
        <end value="100000"/>
    </time>

    <report>
        <no-warnings value="true"/>
        <ignore-errors value="true"/>
        <no-step-log value="true"/>
    </report>

</configuration>
-->

<routes xmlns:xsi="http://www.w3.org/2001/XMLSchema-instance" xsi:noNamespaceSchemaLocation="http://sumo.dlr.de/xsd/routes_file.xsd">
    <vehicle id="1" depart="1.00">
        <route edges="W12 -gneE12 gneE13"/>
    </vehicle>
    <vehicle id="5" depart="5.00">
        <route edges="E01 W12 -gneE12 gneE14"/>
    </vehicle>
    <vehicle id="6" depart="6.00">
        <route edges="W12"/>
    </vehicle>
    <vehicle id="7" depart="7.00">
        <route edges="E01 S14"/>
    </vehicle>
    <vehicle id="8" depart="8.00">
        <route edges="-gneE12 gneE13"/>
    </vehicle>
    <vehicle id="12" depart="12.00">
        <route edges="-gneE13 gneE12 W21 E10"/>
    </vehicle>
    <vehicle id="13" depart="13.00">
        <route edges="gneE12 W21"/>
    </vehicle>
    <vehicle id="14" depart="14.00">
        <route edges="gneE15 gneE12 W21"/>
    </vehicle>
    <vehicle id="17" depart="17.00">
        <route edges="gneE15 gneE14"/>
    </vehicle>
    <vehicle id="18" depart="18.00">
        <route edges="W12 -gneE12"/>
    </vehicle>
    <vehicle id="22" depart="22.00">
        <route edges="-gneE12 gneE14"/>
    </vehicle>
    <vehicle id="23" depart="23.00">
        <route edges="gneE12 W21 N13"/>
    </vehicle>
    <vehicle id="26" depart="26.00">
        <route edges="S41 N13"/>
    </vehicle>
    <vehicle id="27" depart="27.00">
        <route edges="E01 W12 -gneE12 gneE13"/>
    </vehicle>
    <vehicle id="28" depart="28.00">
        <route edges="E01 W12 -gneE12 gneE14"/>
    </vehicle>
    <vehicle id="30" depart="30.00">
        <route edges="N31 S14"/>
    </vehicle>
    <vehicle id="31" depart="31.00">
        <route edges="-gneE13 gneE12"/>
    </vehicle>
    <vehicle id="36" depart="36.00">
        <route edges="gneE15 gneE12 W21 E10"/>
    </vehicle>
    <vehicle id="39" depart="39.00">
        <route edges="E01 W12 -gneE12 gneE13"/>
    </vehicle>
    <vehicle id="43" depart="43.00">
        <route edges="gneE15 gneE12 W21 N13"/>
    </vehicle>
    <vehicle id="44" depart="44.00">
        <route edges="W21 E10"/>
    </vehicle>
    <vehicle id="45" depart="45.00">
        <route edges="-gneE14 gneE13"/>
    </vehicle>
    <vehicle id="47" depart="47.00">
        <route edges="-gneE13 gneE12 W21"/>
    </vehicle>
    <vehicle id="52" depart="52.00">
        <route edges="W12 -gneE12"/>
    </vehicle>
    <vehicle id="53" depart="53.00">
        <route edges="-gneE12"/>
    </vehicle>
    <vehicle id="54" depart="54.00">
        <route edges="gneE15 gneE14"/>
    </vehicle>
    <vehicle id="55" depart="55.00">
        <route edges="E01 W12 -gneE12"/>
    </vehicle>
    <vehicle id="56" depart="56.00">
        <route edges="N31 E10"/>
    </vehicle>
    <vehicle id="58" depart="58.00">
        <route edges="gneE15 gneE14"/>
    </vehicle>
    <vehicle id="59" depart="59.00">
        <route edges="gneE15 gneE12 W21 N13"/>
    </vehicle>
    <vehicle id="60" depart="60.00">
        <route edges="S41 N13"/>
    </vehicle>
    <vehicle id="64" depart="64.00">
        <route edges="W21 E10"/>
    </vehicle>
    <vehicle id="66" depart="66.00">
        <route edges="-gneE13 gneE12 W21 N13"/>
    </vehicle>
    <vehicle id="68" depart="68.00">
        <route edges="W12 -gneE12"/>
    </vehicle>
    <vehicle id="70" depart="70.00">
        <route edges="-gneE14 gneE13"/>
    </vehicle>
    <vehicle id="71" depart="71.00">
        <route edges="W21 E10"/>
    </vehicle>
    <vehicle id="72" depart="72.00">
        <route edges="W21"/>
    </vehicle>
    <vehicle id="74" depart="74.00">
        <route edges="-gneE13 gneE12 W21 E10"/>
    </vehicle>
    <vehicle id="75" depart="75.00">
        <route edges="W21"/>
    </vehicle>
    <vehicle id="76" depart="76.00">
        <route edges="gneE12 W21 E10"/>
    </vehicle>
    <vehicle id="77" depart="77.00">
        <route edges="W12 -gneE12"/>
    </vehicle>
    <vehicle id="78" depart="78.00">
        <route edges="W12 -gneE12"/>
    </vehicle>
    <vehicle id="81" depart="81.00">
        <route edges="gneE12 W21"/>
    </vehicle>
    <vehicle id="82" depart="82.00">
        <route edges="gneE15 gneE12 W21 E10"/>
    </vehicle>
    <vehicle id="94" depart="94.00">
        <route edges="-gneE12 gneE14"/>
    </vehicle>
    <vehicle id="96" depart="96.00">
        <route edges="E01 W12"/>
    </vehicle>
    <vehicle id="101" depart="101.00">
        <route edges="-gneE12 gneE14"/>
    </vehicle>
    <vehicle id="102" depart="102.00">
        <route edges="W21 N13"/>
    </vehicle>
    <vehicle id="104" depart="104.00">
        <route edges="-gneE13 gneE12"/>
    </vehicle>
    <vehicle id="106" depart="106.00">
        <route edges="W12 -gneE12"/>
    </vehicle>
    <vehicle id="110" depart="110.00">
        <route edges="gneE15 gneE14"/>
    </vehicle>
    <vehicle id="111" depart="111.00">
        <route edges="S41 W12 -gneE12 gneE13"/>
    </vehicle>
    <vehicle id="115" depart="115.00">
        <route edges="S41 W12 -gneE12 gneE14"/>
    </vehicle>
    <vehicle id="117" depart="117.00">
        <route edges="W12 -gneE12"/>
    </vehicle>
    <vehicle id="120" depart="120.00">
        <route edges="E01 W12 -gneE12"/>
    </vehicle>
    <vehicle id="121" depart="121.00">
        <route edges="gneE12 W21"/>
    </vehicle>
    <vehicle id="129" depart="129.00">
        <route edges="E01 W12 -gneE12"/>
    </vehicle>
    <vehicle id="130" depart="130.00">
        <route edges="S41 N13"/>
    </vehicle>
    <vehicle id="131" depart="131.00">
        <route edges="-gneE13 gneE12 W21 N13"/>
    </vehicle>
    <vehicle id="132" depart="132.00">
        <route edges="gneE15 gneE12 W21 N13"/>
    </vehicle>
    <vehicle id="133" depart="133.00">
        <route edges="gneE15 gneE12 W21 E10"/>
    </vehicle>
    <vehicle id="136" depart="136.00">
        <route edges="-gneE13 gneE12 W21"/>
    </vehicle>
    <vehicle id="137" depart="137.00">
        <route edges="E01 W12"/>
    </vehicle>
    <vehicle id="140" depart="140.00">
        <route edges="E01 W12"/>
    </vehicle>
    <vehicle id="144" depart="144.00">
        <route edges="gneE12 W21"/>
    </vehicle>
    <vehicle id="145" depart="145.00">
        <route edges="gneE12 W21 E10"/>
    </vehicle>
    <vehicle id="146" depart="146.00">
        <route edges="-gneE12 gneE14"/>
    </vehicle>
    <vehicle id="148" depart="148.00">
        <route edges="W12"/>
    </vehicle>
    <vehicle id="150" depart="150.00">
        <route edges="W21"/>
    </vehicle>
    <vehicle id="151" depart="151.00">
        <route edges="gneE12 W21 E10"/>
    </vehicle>
    <vehicle id="152" depart="152.00">
        <route edges="W21"/>
    </vehicle>
    <vehicle id="155" depart="155.00">
        <route edges="gneE15 gneE12 W21"/>
    </vehicle>
    <vehicle id="157" depart="157.00">
        <route edges="gneE15 gneE12 W21 E10"/>
    </vehicle>
    <vehicle id="158" depart="158.00">
        <route edges="S41 W12"/>
    </vehicle>
    <vehicle id="159" depart="159.00">
        <route edges="gneE15 gneE12 W21 E10"/>
    </vehicle>
    <vehicle id="160" depart="160.00">
        <route edges="-gneE12 gneE14"/>
    </vehicle>
    <vehicle id="163" depart="163.00">
        <route edges="gneE15 gneE14"/>
    </vehicle>
    <vehicle id="172" depart="172.00">
        <route edges="E01 W12"/>
    </vehicle>
    <vehicle id="174" depart="174.00">
        <route edges="-gneE13 gneE12"/>
    </vehicle>
    <vehicle id="176" depart="176.00">
        <route edges="E01 W12 -gneE12 gneE13"/>
    </vehicle>
    <vehicle id="177" depart="177.00">
        <route edges="S41 W12 -gneE12"/>
    </vehicle>
    <vehicle id="178" depart="178.00">
        <route edges="N31 S14"/>
    </vehicle>
    <vehicle id="180" depart="180.00">
        <route edges="S41 W12 -gneE12 gneE14"/>
    </vehicle>
    <vehicle id="183" depart="183.00">
        <route edges="gneE15 gneE12 W21"/>
    </vehicle>
    <vehicle id="184" depart="184.00">
        <route edges="gneE12"/>
    </vehicle>
    <vehicle id="185" depart="185.00">
        <route edges="E01 W12 -gneE12"/>
    </vehicle>
    <vehicle id="186" depart="186.00">
        <route edges="-gneE12 gneE13"/>
    </vehicle>
    <vehicle id="188" depart="188.00">
        <route edges="-gneE13 gneE12 W21"/>
    </vehicle>
    <vehicle id="189" depart="189.00">
        <route edges="gneE15 gneE14"/>
    </vehicle>
    <vehicle id="192" depart="192.00">
        <route edges="S41 W12 -gneE12 gneE13"/>
    </vehicle>
    <vehicle id="194" depart="194.00">
        <route edges="N31 S14"/>
    </vehicle>
    <vehicle id="195" depart="195.00">
        <route edges="-gneE12 gneE14"/>
    </vehicle>
    <vehicle id="197" depart="197.00">
        <route edges="gneE12 W21 E10"/>
    </vehicle>
    <vehicle id="199" depart="199.00">
        <route edges="E01 W12 -gneE12 gneE13"/>
    </vehicle>
    <vehicle id="202" depart="202.00">
        <route edges="S41 W12 -gneE12 gneE14"/>
    </vehicle>
    <vehicle id="210" depart="210.00">
        <route edges="W12 -gneE12"/>
    </vehicle>
    <vehicle id="212" depart="212.00">
        <route edges="gneE12 W21 N13"/>
    </vehicle>
    <vehicle id="213" depart="213.00">
        <route edges="W12 -gneE12"/>
    </vehicle>
    <vehicle id="217" depart="217.00">
        <route edges="E01 W12 -gneE12"/>
    </vehicle>
    <vehicle id="218" depart="218.00">
        <route edges="E01 W12 -gneE12"/>
    </vehicle>
    <vehicle id="219" depart="219.00">
        <route edges="-gneE13 gneE12"/>
    </vehicle>
    <vehicle id="222" depart="222.00">
        <route edges="W21 E10"/>
    </vehicle>
    <vehicle id="224" depart="224.00">
        <route edges="gneE15 gneE12 W21"/>
    </vehicle>
    <vehicle id="227" depart="227.00">
        <route edges="E01 W12"/>
    </vehicle>
    <vehicle id="231" depart="231.00">
        <route edges="gneE12 W21 N13"/>
    </vehicle>
    <vehicle id="232" depart="232.00">
        <route edges="S41 N13"/>
    </vehicle>
    <vehicle id="235" depart="235.00">
        <route edges="W12"/>
    </vehicle>
    <vehicle id="237" depart="237.00">
        <route edges="gneE12"/>
    </vehicle>
    <vehicle id="238" depart="238.00">
        <route edges="-gneE13 gneE12"/>
    </vehicle>
    <vehicle id="241" depart="241.00">
        <route edges="-gneE12 gneE13"/>
    </vehicle>
    <vehicle id="242" depart="242.00">
        <route edges="W21 E10"/>
    </vehicle>
    <vehicle id="243" depart="243.00">
        <route edges="gneE15 gneE12 W21"/>
    </vehicle>
    <vehicle id="245" depart="245.00">
        <route edges="gneE15 gneE12"/>
    </vehicle>
    <vehicle id="248" depart="248.00">
        <route edges="N31 S14"/>
    </vehicle>
    <vehicle id="253" depart="253.00">
        <route edges="E01 W12 -gneE12 gneE14"/>
    </vehicle>
    <vehicle id="256" depart="256.00">
        <route edges="gneE12 W21"/>
    </vehicle>
    <vehicle id="258" depart="258.00">
        <route edges="W12 -gneE12 gneE14"/>
    </vehicle>
    <vehicle id="259" depart="259.00">
        <route edges="W12"/>
    </vehicle>
    <vehicle id="260" depart="260.00">
        <route edges="S41 W12 -gneE12"/>
    </vehicle>
    <vehicle id="263" depart="263.00">
        <route edges="E01 W12"/>
    </vehicle>
    <vehicle id="265" depart="265.00">
        <route edges="-gneE12"/>
    </vehicle>
    <vehicle id="271" depart="271.00">
        <route edges="gneE15 gneE12 W21 E10"/>
    </vehicle>
    <vehicle id="272" depart="272.00">
        <route edges="-gneE13 gneE12 W21"/>
    </vehicle>
    <vehicle id="275" depart="275.00">
        <route edges="gneE15 gneE12 W21 E10"/>
    </vehicle>
    <vehicle id="276" depart="276.00">
        <route edges="gneE12 W21"/>
    </vehicle>
    <vehicle id="278" depart="278.00">
        <route edges="S41 W12"/>
    </vehicle>
    <vehicle id="279" depart="279.00">
        <route edges="E01 W12 -gneE12 gneE14"/>
    </vehicle>
    <vehicle id="280" depart="280.00">
        <route edges="-gneE13 -gneE15"/>
    </vehicle>
    <vehicle id="285" depart="285.00">
        <route edges="-gneE14 gneE13"/>
    </vehicle>
    <vehicle id="288" depart="288.00">
        <route edges="gneE15 gneE14"/>
    </vehicle>
    <vehicle id="291" depart="291.00">
        <route edges="gneE12 W21"/>
    </vehicle>
    <vehicle id="297" depart="297.00">
        <route edges="-gneE14 -gneE15"/>
    </vehicle>
    <vehicle id="298" depart="298.00">
        <route edges="S41 W12"/>
    </vehicle>
    <vehicle id="299" depart="299.00">
        <route edges="-gneE12 gneE13"/>
    </vehicle>
    <vehicle id="301" depart="301.00">
        <route edges="gneE12 W21"/>
    </vehicle>
    <vehicle id="307" depart="307.00">
        <route edges="-gneE14 gneE13"/>
    </vehicle>
    <vehicle id="310" depart="310.00">
        <route edges="E01 W12 -gneE12 gneE13"/>
    </vehicle>
    <vehicle id="312" depart="312.00">
        <route edges="-gneE13 gneE12"/>
    </vehicle>
    <vehicle id="313" depart="313.00">
        <route edges="N31 S14"/>
    </vehicle>
    <vehicle id="314" depart="314.00">
        <route edges="-gneE12 gneE13"/>
    </vehicle>
    <vehicle id="324" depart="324.00">
        <route edges="-gneE12"/>
    </vehicle>
    <vehicle id="325" depart="325.00">
        <route edges="-gneE12 gneE14"/>
    </vehicle>
    <vehicle id="328" depart="328.00">
        <route edges="gneE12 W21 N13"/>
    </vehicle>
    <vehicle id="333" depart="333.00">
        <route edges="-gneE13 gneE12 W21"/>
    </vehicle>
    <vehicle id="334" depart="334.00">
        <route edges="S41 W12 -gneE12"/>
    </vehicle>
    <vehicle id="335" depart="335.00">
        <route edges="gneE15 gneE12"/>
    </vehicle>
    <vehicle id="336" depart="336.00">
        <route edges="gneE12"/>
    </vehicle>
    <vehicle id="337" depart="337.00">
        <route edges="-gneE12 gneE13"/>
    </vehicle>
    <vehicle id="338" depart="338.00">
        <route edges="W12 -gneE12 gneE14"/>
    </vehicle>
    <vehicle id="340" depart="340.00">
        <route edges="-gneE13 gneE12 W21 N13"/>
    </vehicle>
    <vehicle id="345" depart="345.00">
        <route edges="-gneE13 gneE12 W21 N13"/>
    </vehicle>
    <vehicle id="348" depart="348.00">
        <route edges="S41 W12 -gneE12 gneE13"/>
    </vehicle>
    <vehicle id="349" depart="349.00">
        <route edges="gneE12 W21 E10"/>
    </vehicle>
    <vehicle id="350" depart="350.00">
        <route edges="gneE12 W21 E10"/>
    </vehicle>
    <vehicle id="351" depart="351.00">
        <route edges="-gneE13 gneE12"/>
    </vehicle>
    <vehicle id="352" depart="352.00">
        <route edges="-gneE13 gneE12"/>
    </vehicle>
    <vehicle id="357" depart="357.00">
        <route edges="W21 N13"/>
    </vehicle>
    <vehicle id="361" depart="361.00">
        <route edges="S41 N13"/>
    </vehicle>
    <vehicle id="362" depart="362.00">
        <route edges="E01 S14"/>
    </vehicle>
    <vehicle id="364" depart="364.00">
        <route edges="gneE15 gneE12 W21 E10"/>
    </vehicle>
    <vehicle id="367" depart="367.00">
        <route edges="-gneE13 -gneE15"/>
    </vehicle>
    <vehicle id="370" depart="370.00">
        <route edges="W12 -gneE12 gneE13"/>
    </vehicle>
    <vehicle id="371" depart="371.00">
        <route edges="gneE15 gneE12 W21"/>
    </vehicle>
    <vehicle id="373" depart="373.00">
        <route edges="gneE15 gneE14"/>
    </vehicle>
    <vehicle id="375" depart="375.00">
        <route edges="S41 W12 -gneE12 gneE13"/>
    </vehicle>
    <vehicle id="376" depart="376.00">
        <route edges="gneE15 gneE12 W21 E10"/>
    </vehicle>
    <vehicle id="377" depart="377.00">
        <route edges="W21"/>
    </vehicle>
    <vehicle id="380" depart="380.00">
        <route edges="E01 W12"/>
    </vehicle>
    <vehicle id="381" depart="381.00">
        <route edges="gneE12 W21 E10"/>
    </vehicle>
    <vehicle id="382" depart="382.00">
        <route edges="N31 S14"/>
    </vehicle>
    <vehicle id="384" depart="384.00">
        <route edges="S41 N13"/>
    </vehicle>
    <vehicle id="387" depart="387.00">
        <route edges="S41 W12 -gneE12 gneE14"/>
    </vehicle>
    <vehicle id="390" depart="390.00">
        <route edges="gneE15 gneE12"/>
    </vehicle>
    <vehicle id="393" depart="393.00">
        <route edges="gneE15 gneE14"/>
    </vehicle>
    <vehicle id="394" depart="394.00">
        <route edges="W21"/>
    </vehicle>
    <vehicle id="395" depart="395.00">
        <route edges="S41 W12 -gneE12 gneE14"/>
    </vehicle>
    <vehicle id="396" depart="396.00">
        <route edges="-gneE13 gneE12 W21 E10"/>
    </vehicle>
    <vehicle id="398" depart="398.00">
        <route edges="-gneE12 gneE14"/>
    </vehicle>
    <vehicle id="399" depart="399.00">
        <route edges="-gneE12 gneE14"/>
    </vehicle>
    <vehicle id="400" depart="400.00">
        <route edges="W21"/>
    </vehicle>
    <vehicle id="401" depart="401.00">
        <route edges="-gneE14 -gneE15"/>
    </vehicle>
    <vehicle id="402" depart="402.00">
        <route edges="W21 E10"/>
    </vehicle>
    <vehicle id="403" depart="403.00">
        <route edges="E01 S14"/>
    </vehicle>
    <vehicle id="404" depart="404.00">
        <route edges="W12 -gneE12 gneE14"/>
    </vehicle>
    <vehicle id="405" depart="405.00">
        <route edges="gneE15 gneE12 W21 E10"/>
    </vehicle>
    <vehicle id="410" depart="410.00">
        <route edges="W12 -gneE12"/>
    </vehicle>
    <vehicle id="415" depart="415.00">
        <route edges="E01 W12 -gneE12"/>
    </vehicle>
    <vehicle id="416" depart="416.00">
        <route edges="gneE12 W21 E10"/>
    </vehicle>
    <vehicle id="417" depart="417.00">
        <route edges="gneE15 gneE12 W21 E10"/>
    </vehicle>
    <vehicle id="419" depart="419.00">
        <route edges="E01 W12 -gneE12"/>
    </vehicle>
    <vehicle id="423" depart="423.00">
        <route edges="gneE15 gneE14"/>
    </vehicle>
    <vehicle id="424" depart="424.00">
        <route edges="gneE12 W21"/>
    </vehicle>
    <vehicle id="425" depart="425.00">
        <route edges="E01 W12 -gneE12 gneE14"/>
    </vehicle>
    <vehicle id="427" depart="427.00">
        <route edges="-gneE13 gneE12 W21"/>
    </vehicle>
    <vehicle id="428" depart="428.00">
        <route edges="S41 W12"/>
    </vehicle>
    <vehicle id="429" depart="429.00">
        <route edges="S41 W12 -gneE12 gneE13"/>
    </vehicle>
    <vehicle id="432" depart="432.00">
        <route edges="W21 N13"/>
    </vehicle>
    <vehicle id="438" depart="438.00">
        <route edges="S41 W12 -gneE12 gneE13"/>
    </vehicle>
    <vehicle id="442" depart="442.00">
        <route edges="W21 E10"/>
    </vehicle>
    <vehicle id="448" depart="448.00">
        <route edges="S41 W12 -gneE12 gneE14"/>
    </vehicle>
    <vehicle id="453" depart="453.00">
        <route edges="W21 E10"/>
    </vehicle>
    <vehicle id="454" depart="454.00">
        <route edges="-gneE13 gneE12 W21 E10"/>
    </vehicle>
    <vehicle id="457" depart="457.00">
        <route edges="-gneE12 gneE14"/>
    </vehicle>
    <vehicle id="459" depart="459.00">
        <route edges="E01 W12 -gneE12 gneE13"/>
    </vehicle>
    <vehicle id="460" depart="460.00">
        <route edges="-gneE13 -gneE15"/>
    </vehicle>
    <vehicle id="462" depart="462.00">
        <route edges="E01 W12 -gneE12 gneE14"/>
    </vehicle>
    <vehicle id="463" depart="463.00">
        <route edges="gneE15 gneE12 W21"/>
    </vehicle>
    <vehicle id="465" depart="465.00">
        <route edges="-gneE13 gneE12"/>
    </vehicle>
    <vehicle id="469" depart="469.00">
        <route edges="W21 E10"/>
    </vehicle>
    <vehicle id="471" depart="471.00">
        <route edges="W12 -gneE12 gneE14"/>
    </vehicle>
    <vehicle id="473" depart="473.00">
        <route edges="E01 S14"/>
    </vehicle>
    <vehicle id="474" depart="474.00">
        <route edges="E01 W12"/>
    </vehicle>
    <vehicle id="476" depart="476.00">
        <route edges="E01 W12 -gneE12 gneE14"/>
    </vehicle>
    <vehicle id="480" depart="480.00">
        <route edges="E01 S14"/>
    </vehicle>
    <vehicle id="489" depart="489.00">
        <route edges="S41 W12 -gneE12"/>
    </vehicle>
    <vehicle id="490" depart="490.00">
        <route edges="gneE12 W21 N13"/>
    </vehicle>
    <vehicle id="492" depart="492.00">
        <route edges="-gneE13 gneE12 W21 E10"/>
    </vehicle>
    <vehicle id="493" depart="493.00">
        <route edges="N31 E10"/>
    </vehicle>
    <vehicle id="494" depart="494.00">
        <route edges="-gneE12"/>
    </vehicle>
    <vehicle id="495" depart="495.00">
        <route edges="S41 W12 -gneE12 gneE13"/>
    </vehicle>
    <vehicle id="496" depart="496.00">
        <route edges="gneE15 gneE12"/>
    </vehicle>
    <vehicle id="498" depart="498.00">
        <route edges="E01 W12"/>
    </vehicle>
    <vehicle id="499" depart="499.00">
        <route edges="gneE12 W21"/>
    </vehicle>
    <vehicle id="500" depart="500.00">
        <route edges="gneE12 W21 E10"/>
    </vehicle>
    <vehicle id="501" depart="501.00">
        <route edges="S41 W12 -gneE12 gneE13"/>
    </vehicle>
    <vehicle id="506" depart="506.00">
        <route edges="gneE15 gneE12 W21"/>
    </vehicle>
    <vehicle id="508" depart="508.00">
        <route edges="S41 N13"/>
    </vehicle>
    <vehicle id="509" depart="509.00">
        <route edges="-gneE12 gneE14"/>
    </vehicle>
    <vehicle id="512" depart="512.00">
        <route edges="S41 W12 -gneE12 gneE13"/>
    </vehicle>
    <vehicle id="514" depart="514.00">
        <route edges="gneE12 W21 N13"/>
    </vehicle>
    <vehicle id="515" depart="515.00">
        <route edges="-gneE13 gneE12 W21 E10"/>
    </vehicle>
    <vehicle id="516" depart="516.00">
        <route edges="S41 W12"/>
    </vehicle>
    <vehicle id="518" depart="518.00">
        <route edges="gneE15 gneE14"/>
    </vehicle>
    <vehicle id="519" depart="519.00">
        <route edges="E01 W12"/>
    </vehicle>
    <vehicle id="521" depart="521.00">
        <route edges="W12"/>
    </vehicle>
    <vehicle id="523" depart="523.00">
        <route edges="E01 W12 -gneE12"/>
    </vehicle>
    <vehicle id="527" depart="527.00">
        <route edges="-gneE13 gneE12"/>
    </vehicle>
    <vehicle id="535" depart="535.00">
        <route edges="-gneE12 gneE13"/>
    </vehicle>
    <vehicle id="538" depart="538.00">
        <route edges="-gneE13 -gneE15"/>
    </vehicle>
    <vehicle id="540" depart="540.00">
        <route edges="W21"/>
    </vehicle>
    <vehicle id="541" depart="541.00">
        <route edges="W12"/>
    </vehicle>
    <vehicle id="542" depart="542.00">
        <route edges="W12"/>
    </vehicle>
    <vehicle id="543" depart="543.00">
        <route edges="E01 W12 -gneE12 gneE13"/>
    </vehicle>
    <vehicle id="545" depart="545.00">
        <route edges="gneE12"/>
    </vehicle>
    <vehicle id="548" depart="548.00">
        <route edges="S41 N13"/>
    </vehicle>
    <vehicle id="554" depart="554.00">
        <route edges="W21"/>
    </vehicle>
    <vehicle id="559" depart="559.00">
        <route edges="N31 E10"/>
    </vehicle>
    <vehicle id="560" depart="560.00">
        <route edges="-gneE14 gneE13"/>
    </vehicle>
    <vehicle id="562" depart="562.00">
        <route edges="N31 S14"/>
    </vehicle>
    <vehicle id="565" depart="565.00">
        <route edges="gneE12 W21"/>
    </vehicle>
    <vehicle id="566" depart="566.00">
        <route edges="S41 W12"/>
    </vehicle>
    <vehicle id="572" depart="572.00">
        <route edges="S41 W12 -gneE12 gneE13"/>
    </vehicle>
    <vehicle id="573" depart="573.00">
        <route edges="gneE15 gneE14"/>
    </vehicle>
    <vehicle id="574" depart="574.00">
        <route edges="S41 N13"/>
    </vehicle>
    <vehicle id="576" depart="576.00">
        <route edges="gneE15 gneE12"/>
    </vehicle>
    <vehicle id="580" depart="580.00">
        <route edges="S41 W12 -gneE12 gneE13"/>
    </vehicle>
    <vehicle id="582" depart="582.00">
        <route edges="N31 E10"/>
    </vehicle>
    <vehicle id="583" depart="583.00">
        <route edges="gneE15 gneE12 W21"/>
    </vehicle>
    <vehicle id="589" depart="589.00">
        <route edges="N31 S14"/>
    </vehicle>
    <vehicle id="593" depart="593.00">
        <route edges="-gneE14 gneE13"/>
    </vehicle>
    <vehicle id="596" depart="596.00">
        <route edges="-gneE13 gneE12 W21"/>
    </vehicle>
    <vehicle id="597" depart="597.00">
        <route edges="W21 N13"/>
    </vehicle>
    <vehicle id="601" depart="601.00">
        <route edges="gneE12 W21 E10"/>
    </vehicle>
    <vehicle id="602" depart="602.00">
        <route edges="gneE12 W21"/>
    </vehicle>
    <vehicle id="604" depart="604.00">
        <route edges="gneE15 gneE12 W21 E10"/>
    </vehicle>
    <vehicle id="608" depart="608.00">
        <route edges="S41 W12 -gneE12 gneE13"/>
    </vehicle>
    <vehicle id="610" depart="610.00">
        <route edges="gneE15 gneE14"/>
    </vehicle>
    <vehicle id="611" depart="611.00">
        <route edges="gneE12 W21 N13"/>
    </vehicle>
    <vehicle id="617" depart="617.00">
        <route edges="W12 -gneE12"/>
    </vehicle>
    <vehicle id="618" depart="618.00">
        <route edges="gneE12 W21 N13"/>
    </vehicle>
    <vehicle id="622" depart="622.00">
        <route edges="N31 E10"/>
    </vehicle>
    <vehicle id="623" depart="623.00">
        <route edges="S41 W12 -gneE12 gneE13"/>
    </vehicle>
    <vehicle id="624" depart="624.00">
        <route edges="-gneE13 -gneE15"/>
    </vehicle>
    <vehicle id="627" depart="627.00">
        <route edges="-gneE13 gneE12 W21 E10"/>
    </vehicle>
    <vehicle id="630" depart="630.00">
        <route edges="E01 S14"/>
    </vehicle>
    <vehicle id="636" depart="636.00">
        <route edges="-gneE14 gneE13"/>
    </vehicle>
    <vehicle id="637" depart="637.00">
        <route edges="gneE15 gneE14"/>
    </vehicle>
    <vehicle id="639" depart="639.00">
        <route edges="-gneE13 -gneE15"/>
    </vehicle>
    <vehicle id="641" depart="641.00">
        <route edges="N31 S14"/>
    </vehicle>
    <vehicle id="643" depart="643.00">
        <route edges="gneE12"/>
    </vehicle>
    <vehicle id="644" depart="644.00">
        <route edges="gneE15 gneE14"/>
    </vehicle>
    <vehicle id="647" depart="647.00">
        <route edges="-gneE12 gneE13"/>
    </vehicle>
    <vehicle id="650" depart="650.00">
        <route edges="-gneE12"/>
    </vehicle>
    <vehicle id="651" depart="651.00">
        <route edges="gneE15 gneE12 W21 N13"/>
    </vehicle>
    <vehicle id="652" depart="652.00">
        <route edges="gneE15 gneE12 W21"/>
    </vehicle>
    <vehicle id="654" depart="654.00">
        <route edges="S41 N13"/>
    </vehicle>
    <vehicle id="661" depart="661.00">
        <route edges="gneE12 W21"/>
    </vehicle>
    <vehicle id="663" depart="663.00">
        <route edges="E01 W12"/>
    </vehicle>
    <vehicle id="665" depart="665.00">
        <route edges="-gneE13 gneE12 W21"/>
    </vehicle>
    <vehicle id="670" depart="670.00">
        <route edges="E01 W12 -gneE12 gneE13"/>
    </vehicle>
    <vehicle id="673" depart="673.00">
        <route edges="gneE12"/>
    </vehicle>
    <vehicle id="674" depart="674.00">
        <route edges="gneE12 W21 E10"/>
    </vehicle>
    <vehicle id="675" depart="675.00">
        <route edges="S41 W12 -gneE12"/>
    </vehicle>
    <vehicle id="676" depart="676.00">
        <route edges="W12"/>
    </vehicle>
    <vehicle id="680" depart="680.00">
        <route edges="-gneE12 gneE14"/>
    </vehicle>
    <vehicle id="685" depart="685.00">
        <route edges="N31 S14"/>
    </vehicle>
    <vehicle id="686" depart="686.00">
        <route edges="E01 W12 -gneE12"/>
    </vehicle>
    <vehicle id="687" depart="687.00">
        <route edges="-gneE13 gneE12 W21 E10"/>
    </vehicle>
    <vehicle id="689" depart="689.00">
        <route edges="gneE15 gneE14"/>
    </vehicle>
    <vehicle id="695" depart="695.00">
        <route edges="-gneE12"/>
    </vehicle>
    <vehicle id="703" depart="703.00">
        <route edges="W21"/>
    </vehicle>
    <vehicle id="704" depart="704.00">
        <route edges="gneE12 W21"/>
    </vehicle>
    <vehicle id="706" depart="706.00">
        <route edges="gneE12"/>
    </vehicle>
    <vehicle id="709" depart="709.00">
        <route edges="S41 N13"/>
    </vehicle>
    <vehicle id="710" depart="710.00">
        <route edges="-gneE14 gneE13"/>
    </vehicle>
    <vehicle id="712" depart="712.00">
        <route edges="gneE15 gneE12 W21 E10"/>
    </vehicle>
    <vehicle id="714" depart="714.00">
        <route edges="W12 -gneE12 gneE14"/>
    </vehicle>
    <vehicle id="715" depart="715.00">
        <route edges="-gneE12 gneE13"/>
    </vehicle>
    <vehicle id="720" depart="720.00">
        <route edges="-gneE14 gneE13"/>
    </vehicle>
    <vehicle id="722" depart="722.00">
        <route edges="W12 -gneE12 gneE13"/>
    </vehicle>
    <vehicle id="726" depart="726.00">
        <route edges="-gneE12 gneE14"/>
    </vehicle>
    <vehicle id="728" depart="728.00">
        <route edges="W21 N13"/>
    </vehicle>
    <vehicle id="729" depart="729.00">