<?xml version="1.0" encoding="UTF-8"?>

<!-- generated on 2022-04-06 22:50:46 by Eclipse SUMO netedit Version 1.9.1
<configuration xmlns:xsi="http://www.w3.org/2001/XMLSchema-instance" xsi:noNamespaceSchemaLocation="http://sumo.dlr.de/xsd/netconvertConfiguration.xsd">

    <input>
        <sumo-net-file value="C:\Users\zafeiria\Desktop\QLearning\Network\double\double_intersections.net.xml"/>
    </input>

    <output>
        <output-file value="C:\Users\zafeiria\Desktop\QLearning\Network\double\double.net.xml"/>
    </output>

    <processing>
        <geometry.min-radius.fix.railways value="false"/>
        <geometry.max-grade.fix value="false"/>
        <offset.disable-normalization value="true"/>
        <lefthand value="false"/>
    </processing>

    <junctions>
        <no-turnarounds value="true"/>
        <junctions.corner-detail value="5"/>
        <junctions.limit-turn-speed value="5.5"/>
        <rectangular-lane-cut value="false"/>
    </junctions>

    <pedestrian>
        <walkingareas value="false"/>
    </pedestrian>

    <report>
        <aggregate-warnings value="5"/>
    </report>

</configuration>
-->

<net version="1.9" junctionCornerDetail="5" limitTurnSpeed="5.50" xmlns:xsi="http://www.w3.org/2001/XMLSchema-instance" xsi:noNamespaceSchemaLocation="http://sumo.dlr.de/xsd/net_file.xsd">

    <location netOffset="0.00,0.00" convBoundary="0.00,0.00,400.00,200.00" origBoundary="-10000000000.00,-10000000000.00,10000000000.00,10000000000.00" projParameter="!"/>

    <edge id=":1_0" function="internal">
        <lane id=":1_0_0" index="0" speed="6.51" length="9.03" shape="98.40,107.20 98.05,104.75 97.00,103.00 95.25,101.95 92.80,101.60"/>
    </edge>
    <edge id=":1_1" function="internal">
        <lane id=":1_1_0" index="0" speed="13.89" length="14.40" shape="98.40,107.20 98.40,92.80"/>
    </edge>
    <edge id=":1_2" function="internal">
        <lane id=":1_2_0" index="0" speed="6.51" length="9.03" shape="107.20,101.60 104.75,101.95 103.00,103.00 101.95,104.75 101.60,107.20"/>
    </edge>
    <edge id=":1_3" function="internal">
        <lane id=":1_3_0" index="0" speed="13.89" length="14.40" shape="107.20,101.60 92.80,101.60"/>
    </edge>
    <edge id=":1_4" function="internal">
        <lane id=":1_4_0" index="0" speed="6.51" length="9.03" shape="101.60,92.80 101.95,95.25 103.00,97.00 104.75,98.05 107.20,98.40"/>
    </edge>
    <edge id=":1_5" function="internal">
        <lane id=":1_5_0" index="0" speed="13.89" length="14.40" shape="101.60,92.80 101.60,107.20"/>
    </edge>
    <edge id=":1_6" function="internal">
        <lane id=":1_6_0" index="0" speed="6.51" length="9.03" shape="92.80,98.40 95.25,98.05 97.00,97.00 98.05,95.25 98.40,92.80"/>
    </edge>
    <edge id=":1_7" function="internal">
        <lane id=":1_7_0" index="0" speed="13.89" length="14.40" shape="92.80,98.40 107.20,98.40"/>
    </edge>
    <edge id=":2_0" function="internal">
        <lane id=":2_0_0" index="0" speed="13.89" length="0.10" shape="200.00,101.60 200.00,101.60"/>
    </edge>
    <edge id=":2_1" function="internal">
        <lane id=":2_1_0" index="0" speed="13.89" length="0.10" shape="200.00,98.40 200.00,98.40"/>
    </edge>
    <edge id=":gneJ13_0" function="internal">
        <lane id=":gneJ13_0_0" index="0" speed="6.51" length="9.03" shape="298.40,107.20 298.05,104.75 297.00,103.00 295.25,101.95 292.80,101.60"/>
    </edge>
    <edge id=":gneJ13_1" function="internal">
        <lane id=":gneJ13_1_0" index="0" speed="13.89" length="14.40" shape="298.40,107.20 298.40,92.80"/>
    </edge>
    <edge id=":gneJ13_2" function="internal">
        <lane id=":gneJ13_2_0" index="0" speed="6.51" length="9.03" shape="307.20,101.60 304.75,101.95 303.00,103.00 301.95,104.75 301.60,107.20"/>
    </edge>
    <edge id=":gneJ13_3" function="internal">
        <lane id=":gneJ13_3_0" index="0" speed="13.89" length="14.40" shape="307.20,101.60 292.80,101.60"/>
    </edge>
    <edge id=":gneJ13_4" function="internal">
        <lane id=":gneJ13_4_0" index="0" speed="6.51" length="9.03" shape="301.60,92.80 301.95,95.25 303.00,97.00 304.75,98.05 307.20,98.40"/>
    </edge>
    <edge id=":gneJ13_5" function="internal">
        <lane id=":gneJ13_5_0" index="0" speed="13.89" length="14.40" shape="301.60,92.80 301.60,107.20"/>
    </edge>
    <edge id=":gneJ13_6" function="internal">
        <lane id=":gneJ13_6_0" index="0" speed="6.51" length="9.03" shape="292.80,98.40 295.25,98.05 297.00,97.00 298.05,95.25 298.40,92.80"/>
    </edge>
    <edge id=":gneJ13_7" function="internal">
        <lane id=":gneJ13_7_0" index="0" speed="13.89" length="14.40" shape="292.80,98.40 307.20,98.40"/>
    </edge>

    <edge id="-gneE12" from="2" to="gneJ13" priority="-1">
        <lane id="-gneE12_0" index="0" speed="13.89" length="92.80" shape="200.00,98.40 292.80,98.40"/>
    </edge>
    <edge id="-gneE13" from="gneJ14" to="gneJ13" priority="-1">
        <lane id="-gneE13_0" index="0" speed="13.89" length="92.80" shape="400.00,101.60 307.20,101.60"/>
    </edge>
    <edge id="-gneE14" from="gneJ15" to="gneJ13" priority="-1">
        <lane id="-gneE14_0" index="0" speed="13.89" length="92.80" shape="301.60,0.00 301.60,92.80"/>
    </edge>
    <edge id="-gneE15" from="gneJ13" to="gneJ16" priority="-1">
        <lane id="-gneE15_0" index="0" speed="13.89" length="92.80" shape="301.60,107.20 301.60,200.00"/>
    </edge>
    <edge id="E01" from="0" to="1" priority="-1">
        <lane id="E01_0" index="0" speed="13.89" length="92.80" shape="0.00,98.40 92.80,98.40"/>
    </edge>
    <edge id="E10" from="1" to="0" priority="-1">
        <lane id="E10_0" index="0" speed="13.89" length="92.80" shape="92.80,101.60 0.00,101.60"/>
    </edge>
    <edge id="N13" from="1" to="3" priority="-1">
        <lane id="N13_0" index="0" speed="13.89" length="92.80" shape="101.60,107.20 101.60,200.00"/>
    </edge>
    <edge id="N31" from="3" to="1" priority="-1">
        <lane id="N31_0" index="0" speed="13.89" length="92.80" shape="98.40,200.00 98.40,107.20"/>
    </edge>
    <edge id="S14" from="1" to="4" priority="-1">
        <lane id="S14_0" index="0" speed="13.89" length="92.80" shape="98.40,92.80 98.40,0.00"/>
    </edge>
    <edge id="S41" from="4" to="1" priority="-1">
        <lane id="S41_0" index="0" speed="13.89" length="92.80" shape="101.60,0.00 101.60,92.80"/>
    </edge>
    <edge id="W12" from="1" to="2" priority="-1">
        <lane id="W12_0" index="0" speed="13.89" length="92.80" shape="107.20,98.40 200.00,98.40"/>
    </edge>
    <edge id="W21" from="2" to="1" priority="-1">
        <lane id="W21_0" index="0" speed="13.89" length="92.80" shape="200.00,101.60 107.20,101.60"/>
    </edge>
    <edge id="gneE12" from="gneJ13" to="2" priority="-1">
        <lane id="gneE12_0" index="0" speed="13.89" length="92.80" shape="292.80,101.60 200.00,101.60"/>
    </edge>
    <edge id="gneE13" from="gneJ13" to="gneJ14" priority="-1">
        <lane id="gneE13_0" index="0" speed="13.89" length="92.80" shape="307.20,98.40 400.00,98.40"/>
    </edge>
    <edge id="gneE14" from="gneJ13" to="gneJ15" priority="-1">
        <lane id="gneE14_0" index="0" speed="13.89" length="92.80" shape="298.40,92.80 298.40,0.00"/>
    </edge>
    <edge id="gneE15" from="gneJ16" to="gneJ13" priority="-1">
        <lane id="gneE15_0" index="0" speed="13.89" length="92.80" shape="298.40,200.00 298.40,107.20"/>
    </edge>

    <tlLogic id="1" type="static" programID="0" offset="0">
        <phase duration="42" state="GGrrGGrr"/>
        <phase duration="3"  state="yyrryyrr"/>
        <phase duration="42" state="rrGGrrGG"/>
        <phase duration="3"  state="rryyrryy"/>
    </tlLogic>
    <tlLogic id="gneJ13" type="static" programID="0" offset="0">
        <phase duration="42" state="GGrrGGrr"/>
        <phase duration="3"  state="yyrryyrr"/>
        <phase duration="42" state="rrGGrrGG"/>
        <phase duration="3"  state="rryyrryy"/>
    </tlLogic>

    <junction id="0" type="dead_end" x="0.00" y="100.00" incLanes="E10_0" intLanes="" shape="0.00,100.00 0.00,103.20 0.00,100.00"/>
    <junction id="1" type="traffic_light" x="100.00" y="100.00" incLanes="N31_0 W21_0 S41_0 E01_0" intLanes=":1_0_0 :1_1_0 :1_2_0 :1_3_0 :1_4_0 :1_5_0 :1_6_0 :1_7_0" shape="96.80,107.20 103.20,107.20 103.64,104.98 104.20,104.20 104.98,103.64 105.98,103.31 107.20,103.20 107.20,96.80 104.98,96.36 104.20,95.80 103.64,95.02 103.31,94.02 103.20,92.80 96.80,92.80 96.36,95.02 95.80,95.80 95.02,96.36 94.02,96.69 92.80,96.80 92.80,103.20 95.02,103.64 95.80,104.20 96.36,104.98 96.69,105.98">
        <request index="0" response="00000000" foes="00001000" cont="0"/>
        <request index="1" response="00000000" foes="11001000" cont="0"/>
        <request index="2" response="00100000" foes="00100000" cont="0"/>
        <request index="3" response="00100011" foes="00100011" cont="0"/>
        <request index="4" response="00000000" foes="10000000" cont="0"/>
        <request index="5" response="00000000" foes="10001100" cont="0"/>
        <request index="6" response="00000010" foes="00000010" cont="0"/>
        <request index="7" response="00110010" foes="00110010" cont="0"/>
    </junction>
    <junction id="2" type="priority" x="200.00" y="100.00" incLanes="gneE12_0 W12_0" intLanes=":2_0_0 :2_1_0" shape="200.00,103.20 200.00,96.80 200.00,103.20">
        <request index="0" response="00" foes="00" cont="0"/>
        <request index="1" response="00" foes="00" cont="0"/>
    </junction>
    <junction id="3" type="dead_end" x="100.00" y="200.00" incLanes="N13_0" intLanes="" shape="100.00,200.00 103.20,200.00 100.00,200.00"/>
    <junction id="4" type="dead_end" x="100.00" y="0.00" incLanes="S14_0" intLanes="" shape="100.00,0.00 96.80,0.00 100.00,0.00"/>
    <junction id="gneJ13" type="traffic_light" x="300.00" y="100.00" incLanes="gneE15_0 -gneE13_0 -gneE14_0 -gneE12_0" intLanes=":gneJ13_0_0 :gneJ13_1_0 :gneJ13_2_0 :gneJ13_3_0 :gneJ13_4_0 :gneJ13_5_0 :gneJ13_6_0 :gneJ13_7_0" shape="296.80,107.20 303.20,107.20 303.64,104.98 304.20,104.20 304.98,103.64 305.98,103.31 307.20,103.20 307.20,96.80 304.98,96.36 304.20,95.80 303.64,95.02 303.31,94.02 303.20,92.80 296.80,92.80 296.36,95.02 295.80,95.80 295.02,96.36 294.02,96.69 292.80,96.80 292.80,103.20 295.02,103.64 295.80,104.20 296.36,104.98 296.69,105.98">
        <request index="0" response="00000000" foes="00001000" cont="0"/>
        <request index="1" response="00000000" foes="11001000" cont="0"/>
        <request index="2" response="00100000" foes="00100000" cont="0"/>
        <request index="3" response="00100011" foes="00100011" cont="0"/>
        <request index="4" response="00000000" foes="10000000" cont="0"/>
        <request index="5" response="00000000" foes="10001100" cont="0"/>
        <request index="6" response="00000010" foes="00000010" cont="0"/>
        <request index="7" response="00110010" foes="00110010" cont="0"/>
    </junction>
    <junction id="gneJ14" type="dead_end" x="400.00" y="100.00" incLanes="gneE13_0" intLanes="" shape="400.00,100.00 400.00,96.80 400.00,100.00"/>
    <junction id="gneJ15" type="dead_end" x="300.00" y="0.00" incLanes="gneE14_0" intLanes="" shape="300.00,0.00 296.80,0.00 300.00,0.00"/>
    <junction id="gneJ16" type="dead_end" x="300.00" y="200.00" incLanes="-gneE15_0" intLanes="" shape="300.00,200.00 303.20,200.00 300.00,200.00"/>

    <connection from="-gneE12" to="gneE14" fromLane="0" toLane="0" via=":gneJ13_6_0" tl="gneJ13" linkIndex="6" dir="r" state="o"/>
    <connection from="-gneE12" to="gneE13" fromLane="0" toLane="0" via=":gneJ13_7_0" tl="gneJ13" linkIndex="7" dir="s" state="o"/>
    <connection from="-gneE13" to="-gneE15" fromLane="0" toLane="0" via=":gneJ13_2_0" tl="gneJ13" linkIndex="2" dir="r" state="o"/>
    <connection from="-gneE13" to="gneE12" fromLane="0" toLane="0" via=":gneJ13_3_0" tl="gneJ13" linkIndex="3" dir="s" state="o"/>
    <connection from="-gneE14" to="gneE13" fromLane="0" toLane="0" via=":gneJ13_4_0" tl="gneJ13" linkIndex="4" dir="r" state="O"/>
    <connection from="-gneE14" to="-gneE15" fromLane="0" toLane="0" via=":gneJ13_5_0" tl="gneJ13" linkIndex="5" dir="s" state="O"/>
    <connection from="E01" to="S14" fromLane="0" toLane="0" via=":1_6_0" tl="1" linkIndex="6" dir="r" state="o"/>
    <connection from="E01" to="W12" fromLane="0" toLane="0" via=":1_7_0" tl="1" linkIndex="7" dir="s" state="o"/>
    <connection from="N31" to="E10" fromLane="0" toLane="0" via=":1_0_0" tl="1" linkIndex="0" dir="r" state="O"/>
    <connection from="N31" to="S14" fromLane="0" toLane="0" via=":1_1_0" tl="1" linkIndex="1" dir="s" state="O"/>
    <connection from="S41" to="W12" fromLane="0" toLane="0" via=":1_4_0" tl="1" linkIndex="4" dir="r" state="O"/>
    <connection from="S41" to="N13" fromLane="0" toLane="0" via=":1_5_0" tl="1" linkIndex="5" dir="s" state="O"/>
    <connection from="W12" to="-gneE12" fromLane="0" toLane="0" via=":2_1_0" dir="s" state="M"/>
    <connection from="W21" to="N13" fromLane="0" toLane="0" via=":1_2_0" tl="1" linkIndex="2" dir="r" state="o"/>
    <connection from="W21" to="E10" fromLane="0" toLane="0" via=":1_3_0" tl="1" linkIndex="3" dir="s" state="o"/>
    <connection from="gneE12" to="W21" fromLane="0" toLane="0" via=":2_0_0" dir="s" state="M"/>
    <connection from="gneE15" to="gneE12" fromLane="0" toLane="0" via=":gneJ13_0_0" tl="gneJ13" linkIndex="0" dir="r" state="O"/>
    <connection from="gneE15" to="gneE14" fromLane="0" toLane="0" via=":gneJ13_1_0" tl="gneJ13" linkIndex="1" dir="s" state="O"/>

    <connection from=":1_0" to="E10" fromLane="0" toLane="0" dir="r" state="M"/>
    <connection from=":1_1" to="S14" fromLane="0" toLane="0" dir="s" state="M"/>
    <connection from=":1_2" to="N13" fromLane="0" toLane="0" dir="r" state="M"/>
    <connection from=":1_3" to="E10" fromLane="0" toLane="0" dir="s" state="M"/>
    <connection from=":1_4" to="W12" fromLane="0" toLane="0" dir="r" state="M"/>
    <connection from=":1_5" to="N13" fromLane="0" toLane="0" dir="s" state="M"/>
    <connection from=":1_6" to="S14" fromLane="0" toLane="0" dir="r" state="M"/>
    <connection from=":1_7" to="W12" fromLane="0" toLane="0" dir="s" state="M"/>
    <connection from=":2_0" to="W21" fromLane="0" toLane="0" dir="s" state="M"/>
    <connection from=":2_1" to="-gneE12" fromLane="0" toLane="0" dir="s" state="M"/>
    <connection from=":gneJ13_0" to="gneE12" fromLane="0" toLane="0" dir="r" state="M"/>
    <connection from=":gneJ13_1" to="gneE14" fromLane="0" toLane="0" dir="s" state="M"/>
    <connection from=":gneJ13_2" to="-gneE15" fromLane="0" toLane="0" dir="r" state="M"/>
    <connection from=":gneJ13_3" to="gneE12" fromLane="0" toLane="0" dir="s" state="M"/>
    <connection from=":gneJ13_4" to="gneE13" fromLane="0" toLane="0" dir="r" state="M"/>
    <connection from=":gneJ13_5" to="-gneE15" fromLane="0" toLane="0" dir="s" state="M"/>
    <connection from=":gneJ13_6" to="gneE14" fromLane="0" toLane="0" dir="r" state="M"/>
    <connection from=":gneJ13_7" to="gneE13" fromLane="0" toLane="0" dir="s" state="M"/>

</net>
