<?xml version="1.0" encoding="UTF-8"?>

<!-- generated on 2022-05-13 12:44:03 by Eclipse SUMO duarouter Version 1.9.1
<configuration xmlns:xsi="http://www.w3.org/2001/XMLSchema-instance" xsi:noNamespaceSchemaLocation="http://sumo.dlr.de/xsd/duarouterConfiguration.xsd">

    <input>
        <net-file value="Network\double\double.net.xml"/>
        <route-files value="trips.trips.xml"/>
    </input>

    <output>
        <output-file value="Network\double\testing.rou.xml"/>
        <alternatives-output value="Network\double\testing.rou.alt.xml"/>
    </output>

    <time>
        <begin value="0"/>
        <end value="100000"/>
    </time>

    <report>
        <no-warnings value="true"/>
        <ignore-errors value="true"/>
        <no-step-log value="true"/>
    </report>

</configuration>
-->

<routes xmlns:xsi="http://www.w3.org/2001/XMLSchema-instance" xsi:noNamespaceSchemaLocation="http://sumo.dlr.de/xsd/routes_file.xsd">
    <vehicle id="0" depart="0.00">
        <route edges="W12 -gneE12"/>
    </vehicle>
    <vehicle id="1" depart="1.00">
        <route edges="gneE15 gneE14"/>
    </vehicle>
    <vehicle id="5" depart="5.00">
        <route edges="gneE15 gneE14"/>
    </vehicle>
    <vehicle id="6" depart="6.00">
        <route edges="N31 E10"/>
    </vehicle>
    <vehicle id="8" depart="8.00">
        <route edges="gneE15 gneE14"/>
    </vehicle>
    <vehicle id="10" depart="10.00">
        <route edges="N31 E10"/>
    </vehicle>
    <vehicle id="25" depart="25.00">
        <route edges="gneE15 gneE12 W21"/>
    </vehicle>
    <vehicle id="31" depart="31.00">
        <route edges="gneE15 gneE12 W21 N13"/>
    </vehicle>
    <vehicle id="32" depart="32.00">
        <route edges="E01 W12"/>
    </vehicle>
    <vehicle id="38" depart="38.00">
        <route edges="E01 S14"/>
    </vehicle>
    <vehicle id="43" depart="43.00">
        <route edges="S41 W12 -gneE12 gneE13"/>
    </vehicle>
    <vehicle id="53" depart="53.00">
        <route edges="-gneE13 gneE12 W21 E10"/>
    </vehicle>
    <vehicle id="58" depart="58.00">
        <route edges="-gneE12"/>
    </vehicle>
    <vehicle id="59" depart="59.00">
        <route edges="E01 W12 -gneE12 gneE14"/>
    </vehicle>
    <vehicle id="60" depart="60.00">
        <route edges="-gneE13 gneE12 W21 E10"/>
    </vehicle>
    <vehicle id="63" depart="63.00">
        <route edges="-gneE13 gneE12 W21 N13"/>
    </vehicle>
    <vehicle id="66" depart="66.00">
        <route edges="S41 W12 -gneE12 gneE14"/>
    </vehicle>
    <vehicle id="70" depart="70.00">
        <route edges="N31 E10"/>
    </vehicle>
    <vehicle id="74" depart="74.00">
        <route edges="S41 W12 -gneE12"/>
    </vehicle>
    <vehicle id="75" depart="75.00">
        <route edges="gneE15 gneE14"/>
    </vehicle>
    <vehicle id="76" depart="76.00">
        <route edges="E01 W12"/>
    </vehicle>
    <vehicle id="80" depart="80.00">
        <route edges="gneE15 gneE12 W21 N13"/>
    </vehicle>
    <vehicle id="83" depart="83.00">
        <route edges="W12 -gneE12 gneE14"/>
    </vehicle>
    <vehicle id="87" depart="87.00">
        <route edges="S41 W12 -gneE12 gneE14"/>
    </vehicle>
    <vehicle id="94" depart="94.00">
        <route edges="W21 N13"/>
    </vehicle>
    <vehicle id="95" depart="95.00">
        <route edges="S41 W12 -gneE12 gneE14"/>
    </vehicle>
    <vehicle id="96" depart="96.00">
        <route edges="S41 N13"/>
    </vehicle>
    <vehicle id="97" depart="97.00">
        <route edges="E01 W12 -gneE12"/>
    </vehicle>
    <vehicle id="99" depart="99.00">
        <route edges="gneE15 gneE12 W21"/>
    </vehicle>
    <vehicle id="100" depart="100.00">
        <route edges="gneE15 gneE12 W21 E10"/>
    </vehicle>
    <vehicle id="101" depart="101.00">
        <route edges="-gneE12 gneE13"/>
    </vehicle>
    <vehicle id="105" depart="105.00">
        <route edges="-gneE13 -gneE15"/>
    </vehicle>
    <vehicle id="109" depart="109.00">
        <route edges="gneE12 W21 E10"/>
    </vehicle>
    <vehicle id="111" depart="111.00">
        <route edges="gneE15 gneE12 W21 E10"/>
    </vehicle>
    <vehicle id="112" depart="112.00">
        <route edges="N31 E10"/>
    </vehicle>
    <vehicle id="113" depart="113.00">
        <route edges="-gneE13 gneE12 W21 E10"/>
    </vehicle>
    <vehicle id="116" depart="116.00">
        <route edges="gneE15 gneE12 W21"/>
    </vehicle>
    <vehicle id="117" depart="117.00">
        <route edges="gneE15 gneE12 W21 E10"/>
    </vehicle>
    <vehicle id="118" depart="118.00">
        <route edges="gneE15 gneE12 W21 E10"/>
    </vehicle>
    <vehicle id="120" depart="120.00">
        <route edges="E01 S14"/>
    </vehicle>
    <vehicle id="122" depart="122.00">
        <route edges="N31 E10"/>
    </vehicle>
    <vehicle id="129" depart="129.00">
        <route edges="-gneE14 gneE13"/>
    </vehicle>
    <vehicle id="130" depart="130.00">
        <route edges="S41 W12 -gneE12 gneE13"/>
    </vehicle>
    <vehicle id="133" depart="133.00">
        <route edges="-gneE14 -gneE15"/>
    </vehicle>
    <vehicle id="135" depart="135.00">
        <route edges="gneE15 gneE12 W21 E10"/>
    </vehicle>
    <vehicle id="138" depart="138.00">
        <route edges="gneE12 W21"/>
    </vehicle>
    <vehicle id="142" depart="142.00">
        <route edges="-gneE14 -gneE15"/>
    </vehicle>
    <vehicle id="147" depart="147.00">
        <route edges="gneE15 gneE12"/>
    </vehicle>
    <vehicle id="152" depart="152.00">
        <route edges="N31 E10"/>
    </vehicle>
    <vehicle id="153" depart="153.00">
        <route edges="-gneE13 -gneE15"/>
    </vehicle>
    <vehicle id="154" depart="154.00">
        <route edges="W21 E10"/>
    </vehicle>
    <vehicle id="156" depart="156.00">
        <route edges="gneE15 gneE12 W21 E10"/>
    </vehicle>
    <vehicle id="157" depart="157.00">
        <route edges="-gneE13 gneE12 W21 E10"/>
    </vehicle>
    <vehicle id="160" depart="160.00">
        <route edges="-gneE13 -gneE15"/>
    </vehicle>
    <vehicle id="161" depart="161.00">
        <route edges="S41 W12 -gneE12"/>
    </vehicle>
    <vehicle id="164" depart="164.00">
        <route edges="W21"/>
    </vehicle>
    <vehicle id="165" depart="165.00">
        <route edges="-gneE13 gneE12"/>
    </vehicle>
    <vehicle id="172" depart="172.00">
        <route edges="S41 W12 -gneE12"/>
    </vehicle>
    <vehicle id="175" depart="175.00">
        <route edges="E01 W12 -gneE12 gneE14"/>
    </vehicle>
    <vehicle id="176" depart="176.00">
        <route edges="W21 N13"/>
    </vehicle>
    <vehicle id="177" depart="177.00">
        <route edges="-gneE12 gneE14"/>
    </vehicle>
    <vehicle id="180" depart="180.00">
        <route edges="E01 W12 -gneE12 gneE14"/>
    </vehicle>
    <vehicle id="185" depart="185.00">
        <route edges="N31 S14"/>
    </vehicle>
    <vehicle id="187" depart="187.00">
        <route edges="E01 W12 -gneE12 gneE14"/>
    </vehicle>
    <vehicle id="188" depart="188.00">
        <route edges="gneE12 W21"/>
    </vehicle>
    <vehicle id="191" depart="191.00">
        <route edges="W21 E10"/>
    </vehicle>
    <vehicle id="193" depart="193.00">
        <route edges="-gneE12 gneE13"/>
    </vehicle>
    <vehicle id="199" depart="199.00">
        <route edges="W12"/>
    </vehicle>
    <vehicle id="200" depart="200.00">
        <route edges="gneE15 gneE12 W21 N13"/>
    </vehicle>
    <vehicle id="201" depart="201.00">
        <route edges="E01 W12 -gneE12 gneE14"/>
    </vehicle>
    <vehicle id="202" depart="202.00">
        <route edges="W12 -gneE12"/>
    </vehicle>
    <vehicle id="208" depart="208.00">
        <route edges="S41 W12 -gneE12 gneE14"/>
    </vehicle>
    <vehicle id="212" depart="212.00">
        <route edges="-gneE12 gneE14"/>
    </vehicle>
    <vehicle id="215" depart="215.00">
        <route edges="-gneE14 -gneE15"/>
    </vehicle>
    <vehicle id="216" depart="216.00">
        <route edges="E01 W12 -gneE12 gneE13"/>
    </vehicle>
    <vehicle id="218" depart="218.00">
        <route edges="gneE12 W21 N13"/>
    </vehicle>
    <vehicle id="221" depart="221.00">
        <route edges="-gneE14 -gneE15"/>
    </vehicle>
    <vehicle id="224" depart="224.00">
        <route edges="-gneE13 gneE12 W21 N13"/>
    </vehicle>
    <vehicle id="226" depart="226.00">
        <route edges="E01 W12 -gneE12 gneE14"/>
    </vehicle>
    <vehicle id="231" depart="231.00">
        <route edges="S41 N13"/>
    </vehicle>
    <vehicle id="232" depart="232.00">
        <route edges="-gneE12"/>
    </vehicle>
    <vehicle id="234" depart="234.00">
        <route edges="-gneE14 gneE13"/>
    </vehicle>
    <vehicle id="235" depart="235.00">
        <route edges="-gneE13 gneE12 W21 N13"/>
    </vehicle>
    <vehicle id="237" depart="237.00">
        <route edges="-gneE14 -gneE15"/>
    </vehicle>
    <vehicle id="238" depart="238.00">
        <route edges="W12"/>
    </vehicle>
    <vehicle id="240" depart="240.00">
        <route edges="W21 N13"/>
    </vehicle>
    <vehicle id="244" depart="244.00">
        <route edges="gneE12 W21"/>
    </vehicle>
    <vehicle id="245" depart="245.00">
        <route edges="-gneE12 gneE14"/>
    </vehicle>
    <vehicle id="246" depart="246.00">
        <route edges="gneE12 W21"/>
    </vehicle>
    <vehicle id="247" depart="247.00">
        <route edges="S41 W12 -gneE12 gneE14"/>
    </vehicle>
    <vehicle id="250" depart="250.00">
        <route edges="-gneE13 gneE12 W21 E10"/>
    </vehicle>
    <vehicle id="257" depart="257.00">
        <route edges="E01 W12"/>
    </vehicle>
    <vehicle id="258" depart="258.00">
        <route edges="gneE12 W21"/>
    </vehicle>
    <vehicle id="264" depart="264.00">
        <route edges="gneE15 gneE12 W21 N13"/>
    </vehicle>
    <vehicle id="266" depart="266.00">
        <route edges="N31 E10"/>
    </vehicle>
    <vehicle id="272" depart="272.00">
        <route edges="N31 E10"/>
    </vehicle>
    <vehicle id="274" depart="274.00">
        <route edges="S41 W12 -gneE12 gneE14"/>
    </vehicle>
    <vehicle id="276" depart="276.00">
        <route edges="-gneE13 gneE12 W21"/>
    </vehicle>
    <vehicle id="277" depart="277.00">
        <route edges="E01 W12 -gneE12 gneE13"/>
    </vehicle>
    <vehicle id="278" depart="278.00">
        <route edges="E01 S14"/>
    </vehicle>
    <vehicle id="279" depart="279.00">
        <route edges="gneE15 gneE12"/>
    </vehicle>
    <vehicle id="281" depart="281.00">
        <route edges="S41 N13"/>
    </vehicle>
    <vehicle id="282" depart="282.00">
        <route edges="gneE15 gneE12 W21 N13"/>
    </vehicle>
    <vehicle id="284" depart="284.00">
        <route edges="gneE15 gneE12 W21 N13"/>
    </vehicle>
    <vehicle id="288" depart="288.00">
        <route edges="-gneE13 -gneE15"/>
    </vehicle>
    <vehicle id="289" depart="289.00">
        <route edges="E01 W12 -gneE12 gneE13"/>
    </vehicle>
    <vehicle id="292" depart="292.00">
        <route edges="gneE15 gneE12 W21 E10"/>
    </vehicle>
    <vehicle id="293" depart="293.00">
        <route edges="E01 W12"/>
    </vehicle>
    <vehicle id="294" depart="294.00">
        <route edges="gneE15 gneE12 W21 E10"/>
    </vehicle>
    <vehicle id="295" depart="295.00">
        <route edges="S41 W12 -gneE12 gneE13"/>
    </vehicle>
    <vehicle id="298" depart="298.00">
        <route edges="W12 -gneE12"/>
    </vehicle>
    <vehicle id="302" depart="302.00">
        <route edges="N31 E10"/>
    </vehicle>
    <vehicle id="306" depart="306.00">
        <route edges="-gneE12 gneE14"/>
    </vehicle>
    <vehicle id="310" depart="310.00">
        <route edges="E01 W12 -gneE12 gneE14"/>
    </vehicle>
    <vehicle id="315" depart="315.00">
        <route edges="W12 -gneE12 gneE14"/>
    </vehicle>
    <vehicle id="316" depart="316.00">
        <route edges="W12 -gneE12 gneE14"/>
    </vehicle>
    <vehicle id="321" depart="321.00">
        <route edges="-gneE14 gneE13"/>
    </vehicle>
    <vehicle id="322" depart="322.00">
        <route edges="S41 N13"/>
    </vehicle>
    <vehicle id="324" depart="324.00">
        <route edges="S41 W12 -gneE12 gneE13"/>
    </vehicle>
    <vehicle id="325" depart="325.00">
        <route edges="E01 W12 -gneE12"/>
    </vehicle>
    <vehicle id="326" depart="326.00">
        <route edges="N31 S14"/>
    </vehicle>
    <vehicle id="334" depart="334.00">
        <route edges="W21"/>
    </vehicle>
    <vehicle id="336" depart="336.00">
        <route edges="-gneE13 -gneE15"/>
    </vehicle>
    <vehicle id="341" depart="341.00">
        <route edges="N31 S14"/>
    </vehicle>
    <vehicle id="342" depart="342.00">
        <route edges="gneE12"/>
    </vehicle>
    <vehicle id="344" depart="344.00">
        <route edges="-gneE13 gneE12"/>
    </vehicle>
    <vehicle id="346" depart="346.00">
        <route edges="E01 W12"/>
    </vehicle>
    <vehicle id="353" depart="353.00">
        <route edges="E01 W12 -gneE12"/>
    </vehicle>
    <vehicle id="354" depart="354.00">
        <route edges="gneE12"/>
    </vehicle>
    <vehicle id="355" depart="355.00">
        <route edges="N31 S14"/>
    </vehicle>
    <vehicle id="356" depart="356.00">
        <route edges="N31 E10"/>
    </vehicle>
    <vehicle id="359" depart="359.00">
        <route edges="-gneE12 gneE13"/>
    </vehicle>
    <vehicle id="362" depart="362.00">
        <route edges="-gneE12 gneE13"/>
    </vehicle>
    <vehicle id="379" depart="379.00">
        <route edges="E01 W12 -gneE12"/>
    </vehicle>
    <vehicle id="383" depart="383.00">
        <route edges="E01 W12 -gneE12 gneE14"/>
    </vehicle>
    <vehicle id="385" depart="385.00">
        <route edges="gneE12"/>
    </vehicle>
    <vehicle id="386" depart="386.00">
        <route edges="E01 W12 -gneE12 gneE14"/>
    </vehicle>
    <vehicle id="387" depart="387.00">
        <route edges="gneE12"/>
    </vehicle>
    <vehicle id="389" depart="389.00">
        <route edges="-gneE14 -gneE15"/>
    </vehicle>
    <vehicle id="390" depart="390.00">
        <route edges="-gneE13 gneE12 W21 E10"/>
    </vehicle>
    <vehicle id="394" depart="394.00">
        <route edges="W21"/>
    </vehicle>
    <vehicle id="395" depart="395.00">
        <route edges="N31 S14"/>
    </vehicle>
    <vehicle id="399" depart="399.00">
        <route edges="-gneE13 -gneE15"/>
    </vehicle>
    <vehicle id="400" depart="400.00">
        <route edges="S41 W12 -gneE12 gneE14"/>
    </vehicle>
    <vehicle id="401" depart="401.00">
        <route edges="gneE12"/>
    </vehicle>
    <vehicle id="403" depart="403.00">
        <route edges="-gneE13 gneE12"/>
    </vehicle>
    <vehicle id="405" depart="405.00">
        <route edges="E01 W12 -gneE12"/>
    </vehicle>
    <vehicle id="406" depart="406.00">
        <route edges="gneE15 gneE12 W21 E10"/>
    </vehicle>
    <vehicle id="409" depart="409.00">
        <route edges="gneE12 W21"/>
    </vehicle>
    <vehicle id="412" depart="412.00">
        <route edges="-gneE13 gneE12 W21 N13"/>
    </vehicle>
    <vehicle id="415" depart="415.00">
        <route edges="-gneE13 gneE12 W21 N13"/>
    </vehicle>
    <vehicle id="416" depart="416.00">
        <route edges="gneE12 W21 E10"/>
    </vehicle>
    <vehicle id="419" depart="419.00">
        <route edges="-gneE13 gneE12 W21 E10"/>
    </vehicle>
    <vehicle id="420" depart="420.00">
        <route edges="W21 N13"/>
    </vehicle>
    <vehicle id="425" depart="425.00">
        <route edges="-gneE13 gneE12"/>
    </vehicle>
    <vehicle id="427" depart="427.00">
        <route edges="gneE12 W21 E10"/>
    </vehicle>
    <vehicle id="431" depart="431.00">
        <route edges="E01 W12 -gneE12"/>
    </vehicle>
    <vehicle id="433" depart="433.00">
        <route edges="gneE12 W21 E10"/>
    </vehicle>
    <vehicle id="435" depart="435.00">
        <route edges="W21 N13"/>
    </vehicle>
    <vehicle id="442" depart="442.00">
        <route edges="-gneE12"/>
    </vehicle>
    <vehicle id="443" depart="443.00">
        <route edges="W12 -gneE12 gneE14"/>
    </vehicle>
    <vehicle id="446" depart="446.00">
        <route edges="gneE15 gneE12"/>
    </vehicle>
    <vehicle id="448" depart="448.00">
        <route edges="gneE12"/>
    </vehicle>
    <vehicle id="452" depart="452.00">
        <route edges="W21 E10"/>
    </vehicle>
    <vehicle id="454" depart="454.00">
        <route edges="-gneE12"/>
    </vehicle>
    <vehicle id="456" depart="456.00">
        <route edges="E01 W12 -gneE12 gneE14"/>
    </vehicle>
    <vehicle id="457" depart="457.00">
        <route edges="gneE15 gneE12 W21 N13"/>
    </vehicle>
    <vehicle id="460" depart="460.00">
        <route edges="gneE15 gneE12 W21 E10"/>
    </vehicle>
    <vehicle id="461" depart="461.00">
        <route edges="W21 E10"/>
    </vehicle>
    <vehicle id="464" depart="464.00">
        <route edges="S41 W12 -gneE12 gneE14"/>
    </vehicle>
    <vehicle id="468" depart="468.00">
        <route edges="W21"/>
    </vehicle>
    <vehicle id="472" depart="472.00">
        <route edges="gneE15 gneE14"/>
    </vehicle>
    <vehicle id="473" depart="473.00">
        <route edges="gneE15 gneE12 W21 E10"/>
    </vehicle>
    <vehicle id="478" depart="478.00">
        <route edges="N31 E10"/>
    </vehicle>
    <vehicle id="479" depart="479.00">
        <route edges="N31 S14"/>
    </vehicle>
    <vehicle id="480" depart="480.00">
        <route edges="gneE12 W21"/>
    </vehicle>
    <vehicle id="481" depart="481.00">
        <route edges="gneE15 gneE12"/>
    </vehicle>
    <vehicle id="483" depart="483.00">
        <route edges="gneE15 gneE12"/>
    </vehicle>
    <vehicle id="485" depart="485.00">
        <route edges="W21 N13"/>
    </vehicle>
    <vehicle id="487" depart="487.00">
        <route edges="-gneE13 gneE12"/>
    </vehicle>
    <vehicle id="488" depart="488.00">
        <route edges="S41 W12"/>
    </vehicle>
    <vehicle id="492" depart="492.00">
        <route edges="gneE12"/>
    </vehicle>
    <vehicle id="496" depart="496.00">
        <route edges="gneE12 W21 N13"/>
    </vehicle>
    <vehicle id="500" depart="500.00">
        <route edges="W21"/>
    </vehicle>
    <vehicle id="505" depart="505.00">
        <route edges="-gneE13 gneE12 W21 E10"/>
    </vehicle>
    <vehicle id="506" depart="506.00">
        <route edges="S41 W12 -gneE12"/>
    </vehicle>
    <vehicle id="507" depart="507.00">
        <route edges="E01 S14"/>
    </vehicle>
    <vehicle id="509" depart="509.00">
        <route edges="-gneE12"/>
    </vehicle>
    <vehicle id="511" depart="511.00">
        <route edges="-gneE12 gneE14"/>
    </vehicle>
    <vehicle id="512" depart="512.00">
        <route edges="gneE15 gneE12 W21"/>
    </vehicle>
    <vehicle id="513" depart="513.00">
        <route edges="-gneE13 -gneE15"/>
    </vehicle>
    <vehicle id="515" depart="515.00">
        <route edges="-gneE12 gneE13"/>
    </vehicle>
    <vehicle id="517" depart="517.00">
        <route edges="gneE15 gneE12 W21 N13"/>
    </vehicle>
    <vehicle id="520" depart="520.00">
        <route edges="gneE12 W21 E10"/>
    </vehicle>
    <vehicle id="522" depart="522.00">
        <route edges="S41 W12"/>
    </vehicle>
    <vehicle id="523" depart="523.00">
        <route edges="W21 N13"/>
    </vehicle>
    <vehicle id="525" depart="525.00">
        <route edges="gneE12 W21 N13"/>
    </vehicle>
    <vehicle id="529" depart="529.00">
        <route edges="W12 -gneE12"/>
    </vehicle>
    <vehicle id="530" depart="530.00">
        <route edges="E01 W12 -gneE12"/>
    </vehicle>
    <vehicle id="534" depart="534.00">
        <route edges="-gneE12 gneE14"/>
    </vehicle>
    <vehicle id="539" depart="539.00">
        <route edges="gneE12 W21 E10"/>
    </vehicle>
    <vehicle id="542" depart="542.00">
        <route edges="E01 W12 -gneE12"/>
    </vehicle>
    <vehicle id="549" depart="549.00">
        <route edges="-gneE12 gneE14"/>
    </vehicle>
    <vehicle id="550" depart="550.00">
        <route edges="gneE12"/>
    </vehicle>
    <vehicle id="554" depart="554.00">
        <route edges="gneE12 W21 E10"/>
    </vehicle>
    <vehicle id="561" depart="561.00">
        <route edges="W12"/>
    </vehicle>
    <vehicle id="567" depart="567.00">
        <route edges="-gneE13 gneE12 W21 N13"/>
    </vehicle>
    <vehicle id="568" depart="568.00">
        <route edges="-gneE12"/>
    </vehicle>
    <vehicle id="569" depart="569.00">
        <route edges="W21 N13"/>
    </vehicle>
    <vehicle id="572" depart="572.00">
        <route edges="E01 S14"/>
    </vehicle>
    <vehicle id="573" depart="573.00">
        <route edges="-gneE13 gneE12 W21"/>
    </vehicle>
    <vehicle id="574" depart="574.00">
        <route edges="S41 W12 -gneE12 gneE14"/>
    </vehicle>
    <vehicle id="582" depart="582.00">
        <route edges="N31 E10"/>
    </vehicle>
    <vehicle id="584" depart="584.00">
        <route edges="E01 W12 -gneE12"/>
    </vehicle>
    <vehicle id="587" depart="587.00">
        <route edges="gneE15 gneE12 W21 E10"/>
    </vehicle>
    <vehicle id="589" depart="589.00">
        <route edges="S41 W12 -gneE12"/>
    </vehicle>
    <vehicle id="590" depart="590.00">
        <route edges="gneE15 gneE12 W21 N13"/>
    </vehicle>
    <vehicle id="594" depart="594.00">
        <route edges="W21 E10"/>
    </vehicle>
    <vehicle id="596" depart="596.00">
        <route edges="-gneE13 gneE12 W21"/>
    </vehicle>
    <vehicle id="598" depart="598.00">
        <route edges="gneE15 gneE12 W21 N13"/>
    </vehicle>
    <vehicle id="600" depart="600.00">
        <route edges="gneE12"/>
    </vehicle>
    <vehicle id="602" depart="602.00">
        <route edges="W21"/>
    </vehicle>
    <vehicle id="608" depart="608.00">
        <route edges="W21 N13"/>
    </vehicle>
    <vehicle id="610" depart="610.00">
        <route edges="-gneE14 gneE13"/>
    </vehicle>
    <vehicle id="613" depart="613.00">
        <route edges="E01 W12 -gneE12"/>
    </vehicle>
    <vehicle id="618" depart="618.00">
        <route edges="W12 -gneE12"/>
    </vehicle>
    <vehicle id="619" depart="619.00">
        <route edges="gneE15 gneE14"/>
    </vehicle>
    <vehicle id="622" depart="622.00">
        <route edges="-gneE14 gneE13"/>
    </vehicle>
    <vehicle id="626" depart="626.00">
        <route edges="S41 W12 -gneE12 gneE14"/>
    </vehicle>
    <vehicle id="627" depart="627.00">
        <route edges="E01 W12 -gneE12"/>
    </vehicle>
    <vehicle id="629" depart="629.00">
        <route edges="gneE15 gneE12"/>
    </vehicle>
    <vehicle id="631" depart="631.00">
        <route edges="E01 W12 -gneE12 gneE14"/>
    </vehicle>
    <vehicle id="637" depart="637.00">
        <route edges="gneE15 gneE12 W21"/>
    </vehicle>
    <vehicle id="640" depart="640.00">
        <route edges="W12 -gneE12 gneE13"/>
    </vehicle>
    <vehicle id="641" depart="641.00">
        <route edges="W12 -gneE12 gneE14"/>
    </vehicle>
    <vehicle id="644" depart="644.00">
        <route edges="N31 S14"/>
    </vehicle>
    <vehicle id="645" depart="645.00">
        <route edges="gneE15 gneE14"/>
    </vehicle>
    <vehicle id="646" depart="646.00">
        <route edges="-gneE13 gneE12"/>
    </vehicle>
    <vehicle id="659" depart="659.00">
        <route edges="-gneE12 gneE13"/>
    </vehicle>
    <vehicle id="660" depart="660.00">
        <route edges="S41 W12 -gneE12 gneE13"/>
    </vehicle>
    <vehicle id="663" depart="663.00">
        <route edges="E01 W12 -gneE12"/>
    </vehicle>
    <vehicle id="664" depart="664.00">
        <route edges="S41 W12 -gneE12 gneE13"/>
    </vehicle>
    <vehicle id="666" depart="666.00">
        <route edges="-gneE12 gneE13"/>
    </vehicle>
    <vehicle id="667" depart="667.00">
        <route edges="gneE15 gneE12"/>
    </vehicle>
    <vehicle id="669" depart="669.00">
        <route edges="-gneE12"/>
    </vehicle>
    <vehicle id="671" depart="671.00">
        <route edges="E01 W12 -gneE12 gneE13"/>
    </vehicle>
    <vehicle id="679" depart="679.00">
        <route edges="-gneE12 gneE14"/>
    </vehicle>
    <vehicle id="680" depart="680.00">
        <route edges="E01 W12 -gneE12 gneE14"/>
    </vehicle>
    <vehicle id="682" depart="682.00">
        <route edges="N31 S14"/>
    </vehicle>
    <vehicle id="689" depart="689.00">
        <route edges="gneE15 gneE12"/>
    </vehicle>
    <vehicle id="690" depart="690.00">
        <route edges="gneE12 W21 N13"/>
    </vehicle>
    <vehicle id="692" depart="692.00">
        <route edges="S41 W12"/>
    </vehicle>
    <vehicle id="695" depart="695.00">
        <route edges="S41 W12 -gneE12"/>
    </vehicle>
    <vehicle id="696" depart="696.00">
        <route edges="-gneE12 gneE13"/>
    </vehicle>
    <vehicle id="699" depart="699.00">
        <route edges="gneE12 W21"/>
    </vehicle>
    <vehicle id="700" depart="700.00">
        <route edges="W12 -gneE12 gneE14"/>
    </vehicle>
    <vehicle id="703" depart="703.00">
        <route edges="-gneE12"/>
    </vehicle>
    <vehicle id="706" depart="706.00">
        <route edges="W12 -gneE12 gneE14"/>
    </vehicle>
    <vehicle id="710" depart="710.00">
        <route edges="-gneE12 gneE13"/>
    </vehicle>
    <vehicle id="714" depart="714.00">
        <route edges="W12 -gneE12"/>
    </vehicle>
    <vehicle id="721" depart="721.00">
        <route edges="-gneE13 gneE12 W21 E10"/>
    </vehicle>
    <vehicle id="725" depart="725.00">
        <route edges="-gneE12"/>
    </vehicle>
    <vehicle id="726" depart="726.00">
        <route edges="E01 W12 -gneE12 gneE14"/>
    </vehicle>
    <vehicle id="727" depart="727.00">
        <route edges="S41 W12"/>
    </vehicle>
    <vehicle id="735" depart="735.00">
        <route edges="gneE15 gneE12 W21 E10"/>
    </vehicle>
    <vehicle id="737" depart="737.00">
        <route edges="E01 W12"/>
    </vehicle>
    <vehicle id="738" depart="738.00">
        <route edges="gneE15 gneE14"/>
    </vehicle>
    <vehicle id="739" depart="739.00">
        <route edges="gneE15 gneE12 W21 N13"/>
    </vehicle>
    <vehicle id="746" depart="746.00">
        <route edges="gneE15 gneE12 W21"/>
    </vehicle>
    <vehicle id="748" depart="748.00">
        <route edges="E01 W12 -gneE12 gneE13"/>
    </vehicle>
    <vehicle id="755" depart="755.00">
        <route edges="E01 S14"/>
    </vehicle>
    <vehicle id="756" depart="756.00">
        <route edges="-gneE13 gneE12 W21"/>
    </vehicle>
    <vehicle id="759" depart="759.00">
        <route edges="S41 W12 -gneE12 gneE14"/>
    </vehicle>
    <vehicle id="760" depart="760.00">
        <route edges="E01 W12 -gneE12 gneE13"/>
    </vehicle>
    <vehicle id="766" depart="766.00">
        <route edges="-gneE13 -gneE15"/>
    </vehicle>
    <vehicle id="767" depart="767.00">
        <route edges="gneE15 gneE12 W21 N13"/>
    </vehicle>
    <vehicle id="768" depart="768.00">
        <route edges="gneE15 gneE12 W21 E10"/>
    </vehicle>
    <vehicle id="771" depart="771.00">
        <route edges="-gneE14 -gneE15"/>
    </vehicle>
    <vehicle id="772" depart="772.00">
        <route edges="gneE12"/>
    </vehicle>
    <vehicle id="776" depart="776.00">
        <route edges="W21 E10"/>
    </vehicle>
    <vehicle id="779" depart="779.00">
        <route edges="N31 E10"/>
    </vehicle>
    <vehicle id="780" depart="780.00">
        <route edges="gneE15 gneE12"/>
    </vehicle>
    <vehicle id="785" depart="785.00">
        <route edges="-gneE12"/>
    </vehicle>
    <vehicle id="789" depart="789.00">
        <route edges="S41 W12 -gneE12 gneE14"/>
    </vehicle>
    <vehicle id="797" depart="797.00">
        <route edges="W21 N13"/>
    </vehicle>
    <vehicle id="801" depart="801.00">
        <route edges="W12 -gneE12 gneE13"/>
    </vehicle>
    <vehicle id="808" depart="808.00">
        <route edges="-gneE14 gneE13"/>
    </vehicle>
    <vehicle id="809" depart="809.00">
        <route edges="gneE15 gneE14"/>
    </vehicle>
    <vehicle id="810" depart="810.00">
        <route edges="gneE12 W21 N13"/>
    </vehicle>
    <vehicle id="812" depart="812.00">
        <route edges="S41 W12 -gneE12 gneE13"/>
    </vehicle>
    <vehicle id="814" depart="814.00">
        <route edges="-gneE13 gneE12 W21"/>
    </vehicle>
    <vehicle id="816" depart="816.00">
        <route edges="S41 N13"/>
    </vehicle>
    <vehicle id="819" depart="819.00">
        <route edges="gneE15 gneE12 W21"/>
    </vehicle>
    <vehicle id="824" depart="824.00">
        <route edges="-gneE12"/>
    </vehicle>
    <vehicle id="825" depart="825.00">
        <route edges="W12"/>
    </vehicle>
    <vehicle id="826" depart="826.00">
        <route edges="-gneE13 -gneE15"/>
    </vehicle>
    <vehicle id="830" depart="830.00">
        <route edges="-gneE13 gneE12"/>
    </vehicle>
    <vehicle id="832" depart="832.00">
        <route edges="-gneE13 gneE12 W21 N13"/>
    </vehicle>
    <vehicle id="834" depart="834.00">
        <route edges="E01 W12 -gneE12 gneE14"/>
    </vehicle>
    <vehicle id="835" depart="835.00">
        <route edges="W12 -gneE12"/>
    </vehicle>
    <vehicle id="838" depart="838.00">
        <route edges="-gneE13 gneE12 W21"/>
    </vehicle>
    <vehicle id="839" depart="839.00">
        <route edges="S41 W12 -gneE12 gneE13"/>
    </vehicle>
    <vehicle id="843" depart="843.00">
        <route edges="S41 W12"/>
    </vehicle>
    <vehicle id="845" depart="845.00">
        <route edges="W21 N13"/>
    </vehicle>
    <vehicle id="847" depart="847.00">
        <route edges="E01 S14"/>
    </vehicle>
    <vehicle id="849" depart="849.00">
        <route edges="gneE12 W21 N13"/>
    </vehicle>
    <vehicle id="850" depart="850.00">
        <route edges="-gneE12 gneE13"/>
    </vehicle>
    <vehicle id="852" depart="852.00">
        <route edges="-gneE14 -gneE15"/>
    </vehicle>
    <vehicle id="853" depart="853.00">
        <route edges="E01 W12"/>
    </vehicle>
    <vehicle id="856" depart="856.00">
        <route edges="E01 W12 -gneE12"/>
    </vehicle>