<?xml version="1.0" encoding="UTF-8"?>

<!-- generated on 2022-04-27 09:47:35 by Eclipse SUMO duarouter Version 1.9.1
<configuration xmlns:xsi="http://www.w3.org/2001/XMLSchema-instance" xsi:noNamespaceSchemaLocation="http://sumo.dlr.de/xsd/duarouterConfiguration.xsd">

    <input>
        <net-file value="Network\fourth\fourth.net.xml"/>
        <route-files value="trips.trips.xml"/>
    </input>

    <output>
        <output-file value="Network\fourth\routesTesting.rou.xml"/>
        <alternatives-output value="Network\fourth\routesTesting.rou.alt.xml"/>
    </output>

    <time>
        <begin value="0"/>
        <end value="100000"/>
    </time>

    <report>
        <no-warnings value="true"/>
        <ignore-errors value="true"/>
        <no-step-log value="true"/>
    </report>

</configuration>
-->

<routes xmlns:xsi="http://www.w3.org/2001/XMLSchema-instance" xsi:noNamespaceSchemaLocation="http://sumo.dlr.de/xsd/routes_file.xsd">
    <vehicle id="1" depart="1.00">
        <route edges="-gneE9 -gneE0 gneE1 W21 N13 gneE5 -gneE4"/>
    </vehicle>
    <vehicle id="2" depart="2.00">
        <route edges="gneE3 gneE1 W21"/>
    </vehicle>
    <vehicle id="3" depart="3.00">
        <route edges="gneE7 -gneE6 -gneE8 -gneE10"/>
    </vehicle>
    <vehicle id="4" depart="4.00">
        <route edges="S41 N13 gneE5 -gneE6 -gneE8 -gneE9 -gneE0"/>
    </vehicle>
    <vehicle id="5" depart="5.00">
        <route edges="-gneE8 -gneE9 -gneE0 gneE1 W21 N13"/>
    </vehicle>
    <vehicle id="9" depart="9.00">
        <route edges="gneE5 -gneE6 -gneE8 -gneE9 -gneE0"/>
    </vehicle>
    <vehicle id="10" depart="10.00">
        <route edges="gneE5 -gneE6 -gneE8 -gneE9 -gneE0 gneE1 W21"/>
    </vehicle>
    <vehicle id="11" depart="11.00">
        <route edges="N13 gneE5 -gneE6 -gneE8 -gneE9 -gneE0 -gneE2"/>
    </vehicle>
    <vehicle id="12" depart="12.00">
        <route edges="gneE8 gneE6 -gneE7"/>
    </vehicle>
    <vehicle id="13" depart="13.00">
        <route edges="-gneE11 -gneE9 -gneE0 gneE1 W21 N13 gneE5 -gneE6 -gneE8 -gneE10"/>
    </vehicle>
    <vehicle id="17" depart="17.00">
        <route edges="N31"/>
    </vehicle>
    <vehicle id="24" depart="24.00">
        <route edges="gneE10 gneE8 gneE6 -gneE7"/>
    </vehicle>
    <vehicle id="25" depart="25.00">
        <route edges="N13 gneE5 -gneE4"/>
    </vehicle>
    <vehicle id="33" depart="33.00">
        <route edges="-gneE8 -gneE9 -gneE0"/>
    </vehicle>
    <vehicle id="36" depart="36.00">
        <route edges="gneE7 -gneE6"/>
    </vehicle>
    <vehicle id="38" depart="38.00">
        <route edges="gneE7 -gneE5 N31 E10"/>
    </vehicle>
    <vehicle id="39" depart="39.00">
        <route edges="-gneE9 -gneE0 gneE1 W21 N13 gneE5 -gneE4"/>
    </vehicle>
    <vehicle id="46" depart="46.00">
        <route edges="gneE5 -gneE6 -gneE8 -gneE9"/>
    </vehicle>
    <vehicle id="53" depart="53.00">
        <route edges="-gneE11 -gneE9"/>
    </vehicle>
    <vehicle id="55" depart="55.00">
        <route edges="gneE7 -gneE5"/>
    </vehicle>
    <vehicle id="57" depart="57.00">
        <route edges="gneE7 -gneE6 -gneE8 -gneE9 -gneE0 gneE1 W21 N13 gneE5"/>
    </vehicle>
    <vehicle id="58" depart="58.00">
        <route edges="E01 W12"/>
    </vehicle>
    <vehicle id="59" depart="59.00">
        <route edges="gneE1 W21 N13 gneE5 -gneE6 -gneE8 -gneE9 -gneE0 -gneE2"/>
    </vehicle>
    <vehicle id="62" depart="62.00">
        <route edges="-gneE0 gneE1 W21 N13 gneE5 -gneE6"/>
    </vehicle>
    <vehicle id="65" depart="65.00">
        <route edges="E01 W12 -gneE1"/>
    </vehicle>
    <vehicle id="67" depart="67.00">
        <route edges="-gneE11 -gneE9 -gneE0 gneE1 W21 E10"/>
    </vehicle>
    <vehicle id="71" depart="71.00">
        <route edges="-gneE9 -gneE0 gneE1 W21 N13 gneE5"/>
    </vehicle>
    <vehicle id="72" depart="72.00">
        <route edges="S41 N13 gneE5 -gneE4"/>
    </vehicle>
    <vehicle id="74" depart="74.00">
        <route edges="-gneE6"/>
    </vehicle>
    <vehicle id="76" depart="76.00">
        <route edges="S41 N13"/>
    </vehicle>
    <vehicle id="77" depart="77.00">
        <route edges="-gneE11 gneE8 gneE6 -gneE4"/>
    </vehicle>
    <vehicle id="79" depart="79.00">
        <route edges="-gneE8 -gneE9 -gneE0 gneE1 W21 N13 gneE5 -gneE4"/>
    </vehicle>
    <vehicle id="83" depart="83.00">
        <route edges="-gneE8 -gneE9 -gneE0 gneE1 W21"/>
    </vehicle>
    <vehicle id="84" depart="84.00">
        <route edges="-gneE8 -gneE9 -gneE0 -gneE2"/>
    </vehicle>
    <vehicle id="88" depart="88.00">
        <route edges="-gneE11 -gneE9"/>
    </vehicle>
    <vehicle id="89" depart="89.00">
        <route edges="S41 N13 gneE5 -gneE6 -gneE8 -gneE9 -gneE0 gneE1 W21 E10"/>
    </vehicle>
    <vehicle id="90" depart="90.00">
        <route edges="gneE3 gneE1 W21"/>
    </vehicle>
    <vehicle id="91" depart="91.00">
        <route edges="gneE9 -gneE10"/>
    </vehicle>
    <vehicle id="93" depart="93.00">
        <route edges="gneE6 -gneE4"/>
    </vehicle>
    <vehicle id="94" depart="94.00">
        <route edges="-gneE6 -gneE8 -gneE9"/>
    </vehicle>
    <vehicle id="97" depart="97.00">
        <route edges="S41 N13 gneE5"/>
    </vehicle>
    <vehicle id="105" depart="105.00">
        <route edges="-gneE9 -gneE0 gneE1"/>
    </vehicle>
    <vehicle id="106" depart="106.00">
        <route edges="S41 N13 gneE5 -gneE6 -gneE8 -gneE9"/>
    </vehicle>
    <vehicle id="108" depart="108.00">
        <route edges="gneE0"/>
    </vehicle>
    <vehicle id="111" depart="111.00">
        <route edges="gneE0"/>
    </vehicle>
    <vehicle id="113" depart="113.00">
        <route edges="W21 N13 gneE5"/>
    </vehicle>
    <vehicle id="115" depart="115.00">
        <route edges="-gneE1 -gneE3"/>
    </vehicle>
    <vehicle id="116" depart="116.00">
        <route edges="gneE1 W21"/>
    </vehicle>
    <vehicle id="117" depart="117.00">
        <route edges="-gneE8 -gneE10"/>
    </vehicle>
    <vehicle id="118" depart="118.00">
        <route edges="gneE7 -gneE6 -gneE8 -gneE9 -gneE0 gneE1 W21 N13 gneE5 -gneE4"/>
    </vehicle>
    <vehicle id="123" depart="123.00">
        <route edges="-gneE8"/>
    </vehicle>
    <vehicle id="127" depart="127.00">
        <route edges="gneE9"/>
    </vehicle>
    <vehicle id="131" depart="131.00">
        <route edges="N13 gneE5 -gneE6 -gneE8 -gneE9 -gneE0 -gneE2"/>
    </vehicle>
    <vehicle id="135" depart="135.00">
        <route edges="gneE5 -gneE6"/>
    </vehicle>
    <vehicle id="136" depart="136.00">
        <route edges="gneE10 gneE8"/>
    </vehicle>
    <vehicle id="145" depart="145.00">
        <route edges="-gneE0 gneE1"/>
    </vehicle>
    <vehicle id="148" depart="148.00">
        <route edges="S41 N13 gneE5 -gneE6 -gneE8 -gneE9 -gneE0"/>
    </vehicle>
    <vehicle id="150" depart="150.00">
        <route edges="gneE7 -gneE5 N31"/>
    </vehicle>
    <vehicle id="154" depart="154.00">
        <route edges="gneE5"/>
    </vehicle>
    <vehicle id="155" depart="155.00">
        <route edges="gneE7 -gneE6 -gneE8 -gneE9 -gneE0 gneE1 W21 N13 gneE5 -gneE4"/>
    </vehicle>
    <vehicle id="156" depart="156.00">
        <route edges="-gneE8 -gneE10"/>
    </vehicle>
    <vehicle id="158" depart="158.00">
        <route edges="N31 S14"/>
    </vehicle>
    <vehicle id="164" depart="164.00">
        <route edges="gneE5"/>
    </vehicle>
    <vehicle id="170" depart="170.00">
        <route edges="gneE5 -gneE4"/>
    </vehicle>
    <vehicle id="179" depart="179.00">
        <route edges="-gneE11 -gneE9"/>
    </vehicle>
    <vehicle id="180" depart="180.00">
        <route edges="gneE3 gneE1 W21 N13 gneE5 -gneE6"/>
    </vehicle>
    <vehicle id="181" depart="181.00">
        <route edges="gneE1 W21 N13"/>
    </vehicle>
    <vehicle id="182" depart="182.00">
        <route edges="N31"/>
    </vehicle>
    <vehicle id="186" depart="186.00">
        <route edges="gneE3 gneE1 W21"/>
    </vehicle>
    <vehicle id="190" depart="190.00">
        <route edges="gneE3 gneE1 W21 N13 gneE5 -gneE6"/>
    </vehicle>
    <vehicle id="195" depart="195.00">
        <route edges="gneE7 -gneE5 N31 S14"/>
    </vehicle>
    <vehicle id="200" depart="200.00">
        <route edges="S41 N13 gneE5 -gneE4"/>
    </vehicle>
    <vehicle id="203" depart="203.00">
        <route edges="-gneE11 -gneE9 -gneE0 gneE1 W21 N13"/>
    </vehicle>
    <vehicle id="204" depart="204.00">
        <route edges="gneE10 gneE8 gneE6 -gneE7"/>
    </vehicle>
    <vehicle id="205" depart="205.00">
        <route edges="gneE5 -gneE6 -gneE8 -gneE9 -gneE0 gneE1"/>
    </vehicle>
    <vehicle id="207" depart="207.00">
        <route edges="-gneE6 -gneE8 -gneE9 -gneE0"/>
    </vehicle>
    <vehicle id="208" depart="208.00">
        <route edges="-gneE8 -gneE9 -gneE0 gneE1 W21 E10"/>
    </vehicle>
    <vehicle id="211" depart="211.00">
        <route edges="-gneE6 -gneE8 -gneE9 -gneE0 gneE1 W21"/>
    </vehicle>
    <vehicle id="215" depart="215.00">
        <route edges="-gneE11 -gneE9"/>
    </vehicle>
    <vehicle id="218" depart="218.00">
        <route edges="-gneE8 -gneE9 -gneE0 gneE1 W21 N13 gneE5"/>
    </vehicle>
    <vehicle id="220" depart="220.00">
        <route edges="gneE2 gneE0 gneE9"/>
    </vehicle>
    <vehicle id="222" depart="222.00">
        <route edges="gneE7 -gneE5 N31 S14"/>
    </vehicle>
    <vehicle id="223" depart="223.00">
        <route edges="gneE3 gneE1 W21 N13"/>
    </vehicle>
    <vehicle id="231" depart="231.00">
        <route edges="-gneE9 -gneE0 gneE1 W21 N13 gneE5 -gneE6"/>
    </vehicle>
    <vehicle id="232" depart="232.00">
        <route edges="W21 N13 gneE5 -gneE6 -gneE8 -gneE9 -gneE0 -gneE2"/>
    </vehicle>
    <vehicle id="233" depart="233.00">
        <route edges="-gneE8 -gneE9 -gneE0 gneE1 W21"/>
    </vehicle>
    <vehicle id="235" depart="235.00">
        <route edges="N31"/>
    </vehicle>
    <vehicle id="238" depart="238.00">
        <route edges="gneE1 W21"/>
    </vehicle>
    <vehicle id="241" depart="241.00">
        <route edges="N13 gneE5 -gneE6 -gneE8 -gneE9 -gneE0 gneE1"/>
    </vehicle>
    <vehicle id="245" depart="245.00">
        <route edges="-gneE8 -gneE9 -gneE0 gneE1 W21 N13 gneE5 -gneE4"/>
    </vehicle>
    <vehicle id="246" depart="246.00">
        <route edges="S41 N13 gneE5 -gneE6 -gneE8 -gneE9 -gneE0"/>
    </vehicle>
    <vehicle id="247" depart="247.00">
        <route edges="N13 gneE5 -gneE6 -gneE8 -gneE9 -gneE0 gneE1 W21"/>
    </vehicle>
    <vehicle id="249" depart="249.00">
        <route edges="W12 -gneE1 -gneE2"/>
    </vehicle>
    <vehicle id="250" depart="250.00">
        <route edges="gneE1 W21 N13 gneE5 -gneE6 -gneE8 -gneE9 -gneE0"/>
    </vehicle>
    <vehicle id="251" depart="251.00">
        <route edges="N31"/>
    </vehicle>
    <vehicle id="253" depart="253.00">
        <route edges="-gneE5 N31 E10"/>
    </vehicle>
    <vehicle id="255" depart="255.00">
        <route edges="-gneE8 -gneE9 -gneE0 gneE1 W21 N13 gneE5 -gneE6"/>
    </vehicle>
    <vehicle id="259" depart="259.00">
        <route edges="-gneE0 gneE1 W21 N13"/>
    </vehicle>
    <vehicle id="264" depart="264.00">
        <route edges="-gneE0 -gneE2"/>
    </vehicle>
    <vehicle id="269" depart="269.00">
        <route edges="gneE3 gneE0 gneE9 -gneE10"/>
    </vehicle>
    <vehicle id="271" depart="271.00">
        <route edges="-gneE11 -gneE9 -gneE0"/>
    </vehicle>
    <vehicle id="276" depart="276.00">
        <route edges="-gneE11 -gneE9 -gneE0 gneE1"/>
    </vehicle>
    <vehicle id="279" depart="279.00">
        <route edges="gneE4 -gneE7"/>
    </vehicle>
    <vehicle id="284" depart="284.00">
        <route edges="gneE10 gneE11"/>
    </vehicle>
    <vehicle id="286" depart="286.00">
        <route edges="gneE3 gneE0 gneE9"/>
    </vehicle>
    <vehicle id="288" depart="288.00">
        <route edges="W21 E10"/>
    </vehicle>
    <vehicle id="290" depart="290.00">
        <route edges="-gneE9 -gneE0 gneE1 W21 N13 gneE5"/>
    </vehicle>
    <vehicle id="291" depart="291.00">
        <route edges="gneE5 -gneE6 -gneE8 -gneE10"/>
    </vehicle>
    <vehicle id="292" depart="292.00">
        <route edges="gneE7 -gneE6 -gneE8 -gneE9 -gneE0 gneE1 W21 N13 gneE5 -gneE4"/>
    </vehicle>
    <vehicle id="304" depart="304.00">
        <route edges="-gneE11 gneE8 gneE6 -gneE4"/>
    </vehicle>
    <vehicle id="307" depart="307.00">
        <route edges="W21 N13 gneE5 -gneE6 -gneE8 -gneE9"/>
    </vehicle>
    <vehicle id="308" depart="308.00">
        <route edges="gneE3 gneE1 W21 N13 gneE5 -gneE6"/>
    </vehicle>
    <vehicle id="310" depart="310.00">
        <route edges="-gneE9 -gneE0 gneE1 W21 N13 gneE5 -gneE6 -gneE8 -gneE10"/>
    </vehicle>
    <vehicle id="311" depart="311.00">
        <route edges="-gneE6 -gneE8 -gneE10"/>
    </vehicle>
    <vehicle id="312" depart="312.00">
        <route edges="W21 N13 gneE5 -gneE6 -gneE8 -gneE9 -gneE0 gneE1"/>
    </vehicle>
    <vehicle id="313" depart="313.00">
        <route edges="-gneE6 -gneE8 -gneE9 -gneE0 gneE1 W21 N13 gneE5 -gneE4"/>
    </vehicle>
    <vehicle id="316" depart="316.00">
        <route edges="-gneE9 -gneE0 gneE1 W21 N13 gneE5 -gneE6 -gneE8 -gneE10"/>
    </vehicle>
    <vehicle id="317" depart="317.00">
        <route edges="-gneE6 -gneE8 -gneE9 -gneE0 gneE1 W21 N13 gneE5 -gneE4"/>
    </vehicle>
    <vehicle id="318" depart="318.00">
        <route edges="-gneE6 -gneE8 -gneE9 -gneE0"/>
    </vehicle>
    <vehicle id="327" depart="327.00">
        <route edges="gneE5 -gneE6 -gneE8"/>
    </vehicle>
    <vehicle id="329" depart="329.00">
        <route edges="-gneE1 -gneE2"/>
    </vehicle>
    <vehicle id="331" depart="331.00">
        <route edges="gneE9 -gneE10"/>
    </vehicle>
    <vehicle id="332" depart="332.00">
        <route edges="gneE4 -gneE5 N31 S14"/>
    </vehicle>
    <vehicle id="334" depart="334.00">
        <route edges="W21 N13 gneE5 -gneE6 -gneE8 -gneE9"/>
    </vehicle>
    <vehicle id="335" depart="335.00">
        <route edges="S41 N13 gneE5"/>
    </vehicle>
    <vehicle id="339" depart="339.00">
        <route edges="-gneE6 -gneE8 -gneE9 -gneE0 gneE1 W21 N13 gneE5 -gneE4"/>
    </vehicle>
    <vehicle id="342" depart="342.00">
        <route edges="-gneE0 gneE1 W21 N13 gneE5 -gneE6 -gneE8 -gneE9"/>
    </vehicle>
    <vehicle id="344" depart="344.00">
        <route edges="-gneE8 -gneE9 -gneE0 gneE1 W21"/>
    </vehicle>
    <vehicle id="348" depart="348.00">
        <route edges="gneE10 gneE8"/>
    </vehicle>
    <vehicle id="350" depart="350.00">
        <route edges="gneE10 gneE8 gneE6"/>
    </vehicle>
    <vehicle id="354" depart="354.00">
        <route edges="-gneE9 -gneE0 gneE1 W21 N13 gneE5 -gneE6 -gneE8 -gneE10"/>
    </vehicle>
    <vehicle id="357" depart="357.00">
        <route edges="W12 -gneE1"/>
    </vehicle>
    <vehicle id="358" depart="358.00">
        <route edges="-gneE0 gneE1 W21 N13 gneE5 -gneE6 -gneE8 -gneE9"/>
    </vehicle>
    <vehicle id="364" depart="364.00">
        <route edges="-gneE0 gneE1"/>
    </vehicle>
    <vehicle id="365" depart="365.00">
        <route edges="W12"/>
    </vehicle>
    <vehicle id="369" depart="369.00">
        <route edges="N13 gneE5 -gneE6"/>
    </vehicle>
    <vehicle id="374" depart="374.00">
        <route edges="S41 N13 gneE5 -gneE6"/>
    </vehicle>
    <vehicle id="383" depart="383.00">
        <route edges="S41 N13 gneE5 -gneE6 -gneE8 -gneE9 -gneE0 gneE1 W21"/>
    </vehicle>
    <vehicle id="385" depart="385.00">
        <route edges="gneE1 W21 N13 gneE5 -gneE4"/>
    </vehicle>
    <vehicle id="386" depart="386.00">
        <route edges="-gneE5 N31"/>
    </vehicle>
    <vehicle id="387" depart="387.00">
        <route edges="gneE0 gneE9 -gneE10"/>
    </vehicle>
    <vehicle id="390" depart="390.00">
        <route edges="gneE5 -gneE6 -gneE8 -gneE9 -gneE0 gneE1 W21 E10"/>
    </vehicle>
    <vehicle id="391" depart="391.00">
        <route edges="gneE3 gneE1 W21 N13"/>
    </vehicle>
    <vehicle id="392" depart="392.00">
        <route edges="-gneE9 -gneE0 gneE1 W21 N13 gneE5"/>
    </vehicle>
    <vehicle id="396" depart="396.00">
        <route edges="gneE7 -gneE6 -gneE8 -gneE9 -gneE0 gneE1 W21 N13 gneE5"/>
    </vehicle>
    <vehicle id="397" depart="397.00">
        <route edges="-gneE9 -gneE0 gneE1"/>
    </vehicle>
    <vehicle id="400" depart="400.00">
        <route edges="-gneE9 -gneE0 gneE1 W21 N13 gneE5 -gneE6"/>
    </vehicle>
    <vehicle id="402" depart="402.00">
        <route edges="W12 -gneE1 -gneE2"/>
    </vehicle>
    <vehicle id="405" depart="405.00">
        <route edges="S41 N13 gneE5 -gneE6"/>
    </vehicle>
    <vehicle id="406" depart="406.00">
        <route edges="-gneE6 -gneE8 -gneE9 -gneE0 gneE1 W21"/>
    </vehicle>
    <vehicle id="409" depart="409.00">
        <route edges="gneE3 gneE1 W21"/>
    </vehicle>
    <vehicle id="410" depart="410.00">
        <route edges="gneE5 -gneE6 -gneE8"/>
    </vehicle>
    <vehicle id="411" depart="411.00">
        <route edges="gneE10 gneE11"/>
    </vehicle>
    <vehicle id="413" depart="413.00">
        <route edges="-gneE0 gneE1 W21 N13"/>
    </vehicle>
    <vehicle id="414" depart="414.00">
        <route edges="gneE1 W21 N13 gneE5"/>
    </vehicle>
    <vehicle id="416" depart="416.00">
        <route edges="W21 N13 gneE5 -gneE6 -gneE8 -gneE9"/>
    </vehicle>
    <vehicle id="417" depart="417.00">
        <route edges="gneE3 gneE1 W21 N13 gneE5 -gneE6 -gneE8"/>
    </vehicle>
    <vehicle id="420" depart="420.00">
        <route edges="N13 gneE5 -gneE6 -gneE8 -gneE9 -gneE0 gneE1 W21"/>
    </vehicle>
    <vehicle id="424" depart="424.00">
        <route edges="gneE3 gneE1"/>
    </vehicle>
    <vehicle id="428" depart="428.00">
        <route edges="gneE3 gneE1 W21 N13 gneE5 -gneE6 -gneE8 -gneE9"/>
    </vehicle>
    <vehicle id="435" depart="435.00">
        <route edges="gneE0 gneE9 gneE11"/>
    </vehicle>
    <vehicle id="439" depart="439.00">
        <route edges="-gneE5 N31 E10"/>
    </vehicle>
    <vehicle id="442" depart="442.00">
        <route edges="gneE7 -gneE6 -gneE8 -gneE9 -gneE0 gneE1 W21"/>
    </vehicle>
    <vehicle id="446" depart="446.00">
        <route edges="-gneE9 -gneE0 gneE1 W21 N13 gneE5"/>
    </vehicle>
    <vehicle id="447" depart="447.00">
        <route edges="-gneE6 -gneE8"/>
    </vehicle>
    <vehicle id="453" depart="453.00">
        <route edges="gneE2 gneE0"/>
    </vehicle>
    <vehicle id="459" depart="459.00">
        <route edges="gneE2 gneE0"/>
    </vehicle>
    <vehicle id="461" depart="461.00">
        <route edges="gneE10 gneE8 gneE6"/>
    </vehicle>
    <vehicle id="464" depart="464.00">
        <route edges="gneE3 gneE0 gneE9 -gneE10"/>
    </vehicle>
    <vehicle id="466" depart="466.00">
        <route edges="-gneE6 -gneE8 -gneE9 -gneE0 -gneE2"/>
    </vehicle>
    <vehicle id="470" depart="470.00">
        <route edges="gneE5 -gneE6 -gneE8 -gneE9 -gneE0 gneE1 W21 E10"/>
    </vehicle>
    <vehicle id="472" depart="472.00">
        <route edges="N13 gneE5 -gneE6 -gneE8 -gneE10"/>
    </vehicle>
    <vehicle id="475" depart="475.00">
        <route edges="gneE3 gneE0 gneE9"/>
    </vehicle>
    <vehicle id="476" depart="476.00">
        <route edges="gneE9 gneE11"/>
    </vehicle>
    <vehicle id="477" depart="477.00">
        <route edges="N13 gneE5 -gneE6 -gneE8 -gneE9 -gneE0 gneE1"/>
    </vehicle>
    <vehicle id="478" depart="478.00">
        <route edges="-gneE0 gneE1 W21 N13"/>
    </vehicle>
    <vehicle id="479" depart="479.00">
        <route edges="S41 N13 gneE5 -gneE6 -gneE8 -gneE9 -gneE0 gneE1 W21"/>
    </vehicle>
    <vehicle id="482" depart="482.00">
        <route edges="-gneE11 gneE8 gneE6 -gneE4"/>
    </vehicle>
    <vehicle id="490" depart="490.00">
        <route edges="-gneE11 gneE8 gneE6"/>
    </vehicle>
    <vehicle id="492" depart="492.00">
        <route edges="gneE2 gneE0"/>
    </vehicle>
    <vehicle id="494" depart="494.00">
        <route edges="gneE3 gneE1 W21 N13 gneE5 -gneE6 -gneE8 -gneE9 -gneE0 -gneE2"/>
    </vehicle>
    <vehicle id="498" depart="498.00">
        <route edges="N13 gneE5 -gneE6 -gneE8 -gneE9"/>
    </vehicle>
    <vehicle id="500" depart="500.00">
        <route edges="-gneE11 -gneE9 -gneE0 gneE1 W21"/>
    </vehicle>
    <vehicle id="501" depart="501.00">
        <route edges="gneE0 gneE9"/>
    </vehicle>
    <vehicle id="502" depart="502.00">
        <route edges="N13 gneE5 -gneE6 -gneE8"/>
    </vehicle>
    <vehicle id="503" depart="503.00">
        <route edges="-gneE6 -gneE8 -gneE10"/>
    </vehicle>
    <vehicle id="506" depart="506.00">
        <route edges="gneE1 W21 N13 gneE5 -gneE6 -gneE8 -gneE9 -gneE0"/>
    </vehicle>
    <vehicle id="508" depart="508.00">
        <route edges="-gneE5 N31"/>
    </vehicle>
    <vehicle id="510" depart="510.00">
        <route edges="-gneE6 -gneE8 -gneE9 -gneE0 gneE1 W21 N13 gneE5 -gneE4"/>
    </vehicle>
    <vehicle id="513" depart="513.00">
        <route edges="-gneE0 gneE1 W21 N13 gneE5"/>
    </vehicle>
    <vehicle id="517" depart="517.00">
        <route edges="-gneE0 gneE1"/>
    </vehicle>
    <vehicle id="518" depart="518.00">
        <route edges="-gneE8 -gneE9 -gneE0 gneE1 W21 N13 gneE5 -gneE6"/>
    </vehicle>
    <vehicle id="520" depart="520.00">
        <route edges="gneE3 gneE1 W21 N13"/>
    </vehicle>
    <vehicle id="521" depart="521.00">
        <route edges="gneE3 gneE1 W21 E10"/>
    </vehicle>
    <vehicle id="523" depart="523.00">
        <route edges="-gneE11 -gneE9 -gneE0 gneE1 W21 N13"/>
    </vehicle>
    <vehicle id="526" depart="526.00">
        <route edges="W21 N13 gneE5 -gneE6 -gneE8 -gneE9"/>
    </vehicle>
    <vehicle id="535" depart="535.00">
        <route edges="W21 N13 gneE5 -gneE6 -gneE8 -gneE9"/>
    </vehicle>
    <vehicle id="536" depart="536.00">
        <route edges="gneE1 W21 N13 gneE5 -gneE6 -gneE8 -gneE10"/>
    </vehicle>
    <vehicle id="539" depart="539.00">
        <route edges="gneE3 gneE1 W21 N13 gneE5 -gneE4"/>
    </vehicle>
    <vehicle id="540" depart="540.00">
        <route edges="S41 N13 gneE5 -gneE4"/>
    </vehicle>
    <vehicle id="541" depart="541.00">
        <route edges="N13 gneE5 -gneE6 -gneE8 -gneE9"/>
    </vehicle>
    <vehicle id="543" depart="543.00">
        <route edges="S41 W12"/>
    </vehicle>
    <vehicle id="544" depart="544.00">
        <route edges="N13 gneE5 -gneE6 -gneE8 -gneE9 -gneE0 -gneE2"/>
    </vehicle>
    <vehicle id="546" depart="546.00">
        <route edges="gneE5 -gneE6 -gneE8 -gneE10"/>
    </vehicle>
    <vehicle id="553" depart="553.00">
        <route edges="gneE3 gneE0 gneE9"/>
    </vehicle>
    <vehicle id="556" depart="556.00">
        <route edges="gneE10 gneE8 gneE6 -gneE4"/>
    </vehicle>
    <vehicle id="557" depart="557.00">
        <route edges="-gneE11 -gneE9 -gneE0 gneE1 W21 N13 gneE5"/>
    </vehicle>
    <vehicle id="558" depart="558.00">
        <route edges="N13 gneE5 -gneE6 -gneE8 -gneE9 -gneE0 gneE1"/>
    </vehicle>
    <vehicle id="559" depart="559.00">
        <route edges="gneE0 gneE9 gneE11"/>
    </vehicle>
    <vehicle id="566" depart="566.00">
        <route edges="N13 gneE5 -gneE6 -gneE8 -gneE9 -gneE0"/>
    </vehicle>
    <vehicle id="570" depart="570.00">
        <route edges="gneE3 gneE1 W21 N13 gneE5 -gneE4"/>
    </vehicle>
    <vehicle id="573" depart="573.00">
        <route edges="gneE4 -gneE5 N31"/>
    </vehicle>
    <vehicle id="575" depart="575.00">
        <route edges="-gneE5 N31 S14"/>
    </vehicle>
    <vehicle id="583" depart="583.00">
        <route edges="N31 S14"/>
    </vehicle>
    <vehicle id="584" depart="584.00">
        <route edges="-gneE0 gneE1 W21 N13 gneE5 -gneE6"/>
    </vehicle>
    <vehicle id="585" depart="585.00">
        <route edges="-gneE8 -gneE9 -gneE0 -gneE2"/>
    </vehicle>
    <vehicle id="586" depart="586.00">
        <route edges="-gneE9 -gneE0 gneE1 W21 N13 gneE5 -gneE6"/>
    </vehicle>
    <vehicle id="588" depart="588.00">
        <route edges="-gneE6 -gneE8"/>
    </vehicle>
    <vehicle id="595" depart="595.00">
        <route edges="gneE3 gneE1 W21 N13 gneE5 -gneE6 -gneE8 -gneE9"/>
    </vehicle>
    <vehicle id="596" depart="596.00">
        <route edges="-gneE11 -gneE9 -gneE0"/>
    </vehicle>
    <vehicle id="600" depart="600.00">
        <route edges="gneE6 -gneE4"/>
    </vehicle>
    <vehicle id="601" depart="601.00">
        <route edges="gneE1 W21 N13"/>
    </vehicle>
    <vehicle id="603" depart="603.00">
        <route edges="N13 gneE5 -gneE6"/>
    </vehicle>
    <vehicle id="604" depart="604.00">
        <route edges="-gneE6 -gneE8 -gneE9 -gneE0 gneE1 W21 N13"/>
    </vehicle>
    <vehicle id="605" depart="605.00">
        <route edges="-gneE11 -gneE9 -gneE0 gneE1 W21 N13"/>
    </vehicle>
    <vehicle id="607" depart="607.00">
        <route edges="gneE3 gneE0 gneE9 gneE11"/>
    </vehicle>
    <vehicle id="608" depart="608.00">
        <route edges="gneE5 -gneE4"/>
    </vehicle>
    <vehicle id="610" depart="610.00">
        <route edges="gneE1"/>
    </vehicle>
    <vehicle id="612" depart="612.00">
        <route edges="gneE4 -gneE5 N31 E10"/>
    </vehicle>
    <vehicle id="616" depart="616.00">
        <route edges="gneE1 W21 N13 gneE5"/>
    </vehicle>
    <vehicle id="625" depart="625.00">
        <route edges="W21 E10"/>
    </vehicle>
    <vehicle id="626" depart="626.00">
        <route edges="gneE0 gneE9 gneE11"/>
    </vehicle>
    <vehicle id="627" depart="627.00">
        <route edges="gneE7 -gneE6 -gneE8 -gneE9"/>
    </vehicle>
    <vehicle id="631" depart="631.00">
        <route edges="-gneE11 gneE8 gneE6"/>
    </vehicle>
    <vehicle id="634" depart="634.00">
        <route edges="-gneE8 -gneE9"/>
    </vehicle>
    <vehicle id="635" depart="635.00">
        <route edges="S41 N13"/>
    </vehicle>
    <vehicle id="637" depart="637.00">
        <route edges="-gneE9 -gneE0 gneE1 W21 N13 gneE5 -gneE6 -gneE8"/>
    </vehicle>
    <vehicle id="643" depart="643.00">
        <route edges="gneE7 -gneE6 -gneE8 -gneE9 -gneE0 gneE1 W21 N13 gneE5"/>
    </vehicle>
    <vehicle id="647" depart="647.00">
        <route edges="N31 S14"/>
    </vehicle>
    <vehicle id="650" depart="650.00">
        <route edges="gneE5 -gneE6 -gneE8 -gneE9 -gneE0 gneE1 W21"/>
    </vehicle>
    <vehicle id="655" depart="655.00">
        <route edges="-gneE6 -gneE8 -gneE9 -gneE0 gneE1 W21 N13 gneE5 -gneE4"/>
    </vehicle>
    <vehicle id="657" depart="657.00">
        <route edges="-gneE8 -gneE9 -gneE0 -gneE2"/>
    </vehicle>
    <vehicle id="659" depart="659.00">
        <route edges="-gneE11 -gneE9 -gneE0 gneE1"/>
    </vehicle>
    <vehicle id="660" depart="660.00">
        <route edges="gneE6"/>
    </vehicle>
    <vehicle id="664" depart="664.00">
        <route edges="gneE5 -gneE6 -gneE8 -gneE9 -gneE0 gneE1"/>
    </vehicle>
    <vehicle id="665" depart="665.00">
        <route edges="gneE5 -gneE6 -gneE8 -gneE9 -gneE0 -gneE2"/>
    </vehicle>
    <vehicle id="666" depart="666.00">
        <route edges="S41 N13 gneE5 -gneE6 -gneE8"/>
    </vehicle>
    <vehicle id="669" depart="669.00">
        <route edges="gneE3 gneE1 W21 N13 gneE5 -gneE6 -gneE8 -gneE9"/>
    </vehicle>
    <vehicle id="670" depart="670.00">
        <route edges="W21 N13 gneE5 -gneE6"/>
    </vehicle>
    <vehicle id="671" depart="671.00">
        <route edges="gneE5 -gneE6 -gneE8 -gneE9 -gneE0 gneE1 W21 E10"/>
    </vehicle>
    <vehicle id="672" depart="672.00">
        <route edges="gneE6 -gneE7"/>
    </vehicle>
    <vehicle id="676" depart="676.00">
        <route edges="gneE9 gneE11"/>
    </vehicle>
    <vehicle id="677" depart="677.00">
        <route edges="gneE5 -gneE6 -gneE8 -gneE9 -gneE0 -gneE2"/>
    </vehicle>
    <vehicle id="680" depart="680.00">
        <route edges="-gneE11 -gneE9 -gneE0 gneE1 W21 N13 gneE5"/>
    </vehicle>
    <vehicle id="682" depart="682.00">
        <route edges="gneE4 -gneE5"/>
    </vehicle>
    <vehicle id="683" depart="683.00">
        <route edges="gneE7 -gneE6 -gneE8 -gneE9 -gneE0 -gneE2"/>
    </vehicle>
    <vehicle id="685" depart="685.00">
        <route edges="-gneE8 -gneE9"/>
    </vehicle>
    <vehicle id="686" depart="686.00">
        <route edges="N13 gneE5 -gneE6 -gneE8 -gneE9 -gneE0"/>
    </vehicle>
    <vehicle id="689" depart="689.00">
        <route edges="N13 gneE5 -gneE6 -gneE8 -gneE9 -gneE0"/>
    </vehicle>
    <vehicle id="692" depart="692.00">
        <route edges="-gneE5"/>
    </vehicle>
    <vehicle id="693" depart="693.00">
        <route edges="gneE5 -gneE6 -gneE8 -gneE9 -gneE0 gneE1 W21"/>
    </vehicle>
    <vehicle id="695" depart="695.00">
        <route edges="S41 N13 gneE5 -gneE6 -gneE8 -gneE9 -gneE0"/>
    </vehicle>
    <vehicle id="698" depart="698.00">
        <route edges="gneE3 gneE1 W21 N13"/>
    </vehicle>
    <vehicle id="700" depart="700.00">
        <route edges="E01 W12 -gneE1"/>
    </vehicle>
    <vehicle id="702" depart="702.00">
        <route edges="S41 N13 gneE5 -gneE6 -gneE8 -gneE10"/>
    </vehicle>
    <vehicle id="703" depart="703.00">
        <route edges="gneE7 -gneE5 N31 S14"/>
    </vehicle>
    <vehicle id="704" depart="704.00">
        <route edges="-gneE0 gneE1 W21 N13"/>
    </vehicle>
    <vehicle id="705" depart="705.00">
        <route edges="-gneE8 -gneE9 -gneE0 -gneE2"/>
    </vehicle>
    <vehicle id="707" depart="707.00">
        <route edges="-gneE8"/>
    </vehicle>
    <vehicle id="710" depart="710.00">
        <route edges="W21 N13"/>
    </vehicle>
    <vehicle id="712" depart="712.00">
        <route edges="N31 E10"/>
    </vehicle>
    <vehicle id="714" depart="714.00">
        <route edges="-gneE9 -gneE0"/>
    </vehicle>
    <vehicle id="715" depart="715.00">
        <route edges="gneE4 -gneE7"/>
    </vehicle>
    <vehicle id="718" depart="718.00">
        <route edges="E01 W12 -gneE1"/>
    </vehicle>
    <vehicle id="719" depart="719.00">
        <route edges="gneE0 gneE9 gneE11"/>
    </vehicle>